
---------- Begin Simulation Statistics ----------
sim_seconds                                  0.131616                       # Number of seconds simulated
sim_ticks                                131616114500                       # Number of ticks simulated
final_tick                               5307784193000                       # Number of ticks from beginning of simulation (restored from checkpoints and never reset)
sim_freq                                 1000000000000                       # Frequency of simulated ticks
host_inst_rate                                  33152                       # Simulator instruction rate (inst/s)
host_op_rate                                    57084                       # Simulator op (including micro ops) rate (op/s)
host_tick_rate                               99498006                       # Simulator tick rate (ticks/s)
host_mem_usage                                4494812                       # Number of bytes of host memory used
host_seconds                                  1322.80                       # Real time elapsed on the host
sim_insts                                    43853440                       # Number of instructions simulated
sim_ops                                      75510518                       # Number of ops (including micro ops) simulated
system.voltage_domain.voltage                       1                       # Voltage in Volts
system.clk_domain.clock                           500                       # Clock period in ticks
system.mem_ctrls0.bytes_read::ruby.dir_cntrl0     21447808                       # Number of bytes read from this memory
system.mem_ctrls0.bytes_read::total          21447808                       # Number of bytes read from this memory
system.mem_ctrls0.bytes_written::ruby.dir_cntrl0     13536832                       # Number of bytes written to this memory
system.mem_ctrls0.bytes_written::total       13536832                       # Number of bytes written to this memory
system.mem_ctrls0.num_reads::ruby.dir_cntrl0       335122                       # Number of read requests responded to by this memory
system.mem_ctrls0.num_reads::total             335122                       # Number of read requests responded to by this memory
system.mem_ctrls0.num_writes::ruby.dir_cntrl0       211513                       # Number of write requests responded to by this memory
system.mem_ctrls0.num_writes::total            211513                       # Number of write requests responded to by this memory
system.mem_ctrls0.bw_read::ruby.dir_cntrl0    162957310                       # Total read bandwidth from this memory (bytes/s)
system.mem_ctrls0.bw_read::total            162957310                       # Total read bandwidth from this memory (bytes/s)
system.mem_ctrls0.bw_write::ruby.dir_cntrl0    102850871                       # Write bandwidth from this memory (bytes/s)
system.mem_ctrls0.bw_write::total           102850871                       # Write bandwidth from this memory (bytes/s)
system.mem_ctrls0.bw_total::ruby.dir_cntrl0    265808181                       # Total bandwidth to/from this memory (bytes/s)
system.mem_ctrls0.bw_total::total           265808181                       # Total bandwidth to/from this memory (bytes/s)
system.mem_ctrls0.readReqs                     335122                       # Number of read requests accepted
system.mem_ctrls0.writeReqs                    211513                       # Number of write requests accepted
system.mem_ctrls0.readBursts                   335122                       # Number of DRAM read bursts, including those serviced by the write queue
system.mem_ctrls0.writeBursts                  211513                       # Number of DRAM write bursts, including those merged in the write queue
system.mem_ctrls0.bytesReadDRAM              21446336                       # Total number of bytes read from DRAM
system.mem_ctrls0.bytesReadWrQ                   1472                       # Total number of bytes read from write queue
system.mem_ctrls0.bytesWritten               13536704                       # Total number of bytes written to DRAM
system.mem_ctrls0.bytesReadSys               21447808                       # Total read bytes from the system interface side
system.mem_ctrls0.bytesWrittenSys            13536832                       # Total written bytes from the system interface side
system.mem_ctrls0.servicedByWrQ                    23                       # Number of DRAM read bursts serviced by the write queue
system.mem_ctrls0.mergedWrBursts                    0                       # Number of DRAM write bursts merged with an existing one
system.mem_ctrls0.neitherReadNorWriteReqs            0                       # Number of requests that are neither read nor write
system.mem_ctrls0.perBankRdBursts::0            20678                       # Per bank write bursts
system.mem_ctrls0.perBankRdBursts::1            21305                       # Per bank write bursts
system.mem_ctrls0.perBankRdBursts::2            20870                       # Per bank write bursts
system.mem_ctrls0.perBankRdBursts::3            21356                       # Per bank write bursts
system.mem_ctrls0.perBankRdBursts::4            20957                       # Per bank write bursts
system.mem_ctrls0.perBankRdBursts::5            21170                       # Per bank write bursts
system.mem_ctrls0.perBankRdBursts::6            21070                       # Per bank write bursts
system.mem_ctrls0.perBankRdBursts::7            21064                       # Per bank write bursts
system.mem_ctrls0.perBankRdBursts::8            20835                       # Per bank write bursts
system.mem_ctrls0.perBankRdBursts::9            21039                       # Per bank write bursts
system.mem_ctrls0.perBankRdBursts::10           20804                       # Per bank write bursts
system.mem_ctrls0.perBankRdBursts::11           21189                       # Per bank write bursts
system.mem_ctrls0.perBankRdBursts::12           20648                       # Per bank write bursts
system.mem_ctrls0.perBankRdBursts::13           20563                       # Per bank write bursts
system.mem_ctrls0.perBankRdBursts::14           20784                       # Per bank write bursts
system.mem_ctrls0.perBankRdBursts::15           20767                       # Per bank write bursts
system.mem_ctrls0.perBankWrBursts::0            13275                       # Per bank write bursts
system.mem_ctrls0.perBankWrBursts::1            13220                       # Per bank write bursts
system.mem_ctrls0.perBankWrBursts::2            13125                       # Per bank write bursts
system.mem_ctrls0.perBankWrBursts::3            13366                       # Per bank write bursts
system.mem_ctrls0.perBankWrBursts::4            13193                       # Per bank write bursts
system.mem_ctrls0.perBankWrBursts::5            13313                       # Per bank write bursts
system.mem_ctrls0.perBankWrBursts::6            13247                       # Per bank write bursts
system.mem_ctrls0.perBankWrBursts::7            13443                       # Per bank write bursts
system.mem_ctrls0.perBankWrBursts::8            13158                       # Per bank write bursts
system.mem_ctrls0.perBankWrBursts::9            13339                       # Per bank write bursts
system.mem_ctrls0.perBankWrBursts::10           13137                       # Per bank write bursts
system.mem_ctrls0.perBankWrBursts::11           13067                       # Per bank write bursts
system.mem_ctrls0.perBankWrBursts::12           13060                       # Per bank write bursts
system.mem_ctrls0.perBankWrBursts::13           13074                       # Per bank write bursts
system.mem_ctrls0.perBankWrBursts::14           13356                       # Per bank write bursts
system.mem_ctrls0.perBankWrBursts::15           13138                       # Per bank write bursts
system.mem_ctrls0.numRdRetry                     7676                       # Number of times read queue was full causing retry
system.mem_ctrls0.numWrRetry                     2802                       # Number of times write queue was full causing retry
system.mem_ctrls0.totGap                 131615569000                       # Total gap between requests
system.mem_ctrls0.readPktSize::0                    0                       # Read request sizes (log2)
system.mem_ctrls0.readPktSize::1                    0                       # Read request sizes (log2)
system.mem_ctrls0.readPktSize::2                    0                       # Read request sizes (log2)
system.mem_ctrls0.readPktSize::3                    0                       # Read request sizes (log2)
system.mem_ctrls0.readPktSize::4                    0                       # Read request sizes (log2)
system.mem_ctrls0.readPktSize::5                    0                       # Read request sizes (log2)
system.mem_ctrls0.readPktSize::6               335122                       # Read request sizes (log2)
system.mem_ctrls0.writePktSize::0                   0                       # Write request sizes (log2)
system.mem_ctrls0.writePktSize::1                   0                       # Write request sizes (log2)
system.mem_ctrls0.writePktSize::2                   0                       # Write request sizes (log2)
system.mem_ctrls0.writePktSize::3                   0                       # Write request sizes (log2)
system.mem_ctrls0.writePktSize::4                   0                       # Write request sizes (log2)
system.mem_ctrls0.writePktSize::5                   0                       # Write request sizes (log2)
system.mem_ctrls0.writePktSize::6              211513                       # Write request sizes (log2)
system.mem_ctrls0.rdQLenPdf::0                 188540                       # What read queue length does an incoming req see
system.mem_ctrls0.rdQLenPdf::1                  20459                       # What read queue length does an incoming req see
system.mem_ctrls0.rdQLenPdf::2                  16890                       # What read queue length does an incoming req see
system.mem_ctrls0.rdQLenPdf::3                  14146                       # What read queue length does an incoming req see
system.mem_ctrls0.rdQLenPdf::4                  12604                       # What read queue length does an incoming req see
system.mem_ctrls0.rdQLenPdf::5                  11529                       # What read queue length does an incoming req see
system.mem_ctrls0.rdQLenPdf::6                  10069                       # What read queue length does an incoming req see
system.mem_ctrls0.rdQLenPdf::7                   8636                       # What read queue length does an incoming req see
system.mem_ctrls0.rdQLenPdf::8                   7292                       # What read queue length does an incoming req see
system.mem_ctrls0.rdQLenPdf::9                   6286                       # What read queue length does an incoming req see
system.mem_ctrls0.rdQLenPdf::10                  5110                       # What read queue length does an incoming req see
system.mem_ctrls0.rdQLenPdf::11                  4259                       # What read queue length does an incoming req see
system.mem_ctrls0.rdQLenPdf::12                  3524                       # What read queue length does an incoming req see
system.mem_ctrls0.rdQLenPdf::13                  2966                       # What read queue length does an incoming req see
system.mem_ctrls0.rdQLenPdf::14                  2487                       # What read queue length does an incoming req see
system.mem_ctrls0.rdQLenPdf::15                  1988                       # What read queue length does an incoming req see
system.mem_ctrls0.rdQLenPdf::16                  1654                       # What read queue length does an incoming req see
system.mem_ctrls0.rdQLenPdf::17                  1406                       # What read queue length does an incoming req see
system.mem_ctrls0.rdQLenPdf::18                  1169                       # What read queue length does an incoming req see
system.mem_ctrls0.rdQLenPdf::19                  1048                       # What read queue length does an incoming req see
system.mem_ctrls0.rdQLenPdf::20                   879                       # What read queue length does an incoming req see
system.mem_ctrls0.rdQLenPdf::21                   710                       # What read queue length does an incoming req see
system.mem_ctrls0.rdQLenPdf::22                   632                       # What read queue length does an incoming req see
system.mem_ctrls0.rdQLenPdf::23                   484                       # What read queue length does an incoming req see
system.mem_ctrls0.rdQLenPdf::24                   393                       # What read queue length does an incoming req see
system.mem_ctrls0.rdQLenPdf::25                   315                       # What read queue length does an incoming req see
system.mem_ctrls0.rdQLenPdf::26                   274                       # What read queue length does an incoming req see
system.mem_ctrls0.rdQLenPdf::27                   251                       # What read queue length does an incoming req see
system.mem_ctrls0.rdQLenPdf::28                   212                       # What read queue length does an incoming req see
system.mem_ctrls0.rdQLenPdf::29                   211                       # What read queue length does an incoming req see
system.mem_ctrls0.rdQLenPdf::30                   266                       # What read queue length does an incoming req see
system.mem_ctrls0.rdQLenPdf::31                  8410                       # What read queue length does an incoming req see
system.mem_ctrls0.wrQLenPdf::0                  38875                       # What write queue length does an incoming req see
system.mem_ctrls0.wrQLenPdf::1                  40274                       # What write queue length does an incoming req see
system.mem_ctrls0.wrQLenPdf::2                  40692                       # What write queue length does an incoming req see
system.mem_ctrls0.wrQLenPdf::3                  40817                       # What write queue length does an incoming req see
system.mem_ctrls0.wrQLenPdf::4                  40381                       # What write queue length does an incoming req see
system.mem_ctrls0.wrQLenPdf::5                   2859                       # What write queue length does an incoming req see
system.mem_ctrls0.wrQLenPdf::6                   2557                       # What write queue length does an incoming req see
system.mem_ctrls0.wrQLenPdf::7                   5058                       # What write queue length does an incoming req see
system.mem_ctrls0.bytesPerActivate::samples       152635                       # Bytes accessed per row activation
system.mem_ctrls0.bytesPerActivate::mean   229.183189                       # Bytes accessed per row activation
system.mem_ctrls0.bytesPerActivate::gmean   166.801929                       # Bytes accessed per row activation
system.mem_ctrls0.bytesPerActivate::stdev   195.256621                       # Bytes accessed per row activation
system.mem_ctrls0.bytesPerActivate::0-127        52447     34.36%     34.36% # Bytes accessed per row activation
system.mem_ctrls0.bytesPerActivate::128-255        30950     20.28%     54.64% # Bytes accessed per row activation
system.mem_ctrls0.bytesPerActivate::256-383        52356     34.30%     88.94% # Bytes accessed per row activation
system.mem_ctrls0.bytesPerActivate::384-511         5569      3.65%     92.59% # Bytes accessed per row activation
system.mem_ctrls0.bytesPerActivate::512-639         3758      2.46%     95.05% # Bytes accessed per row activation
system.mem_ctrls0.bytesPerActivate::640-767         2128      1.39%     96.44% # Bytes accessed per row activation
system.mem_ctrls0.bytesPerActivate::768-895         1312      0.86%     97.30% # Bytes accessed per row activation
system.mem_ctrls0.bytesPerActivate::896-1023         1059      0.69%     98.00% # Bytes accessed per row activation
system.mem_ctrls0.bytesPerActivate::1024-1151         3056      2.00%    100.00% # Bytes accessed per row activation
system.mem_ctrls0.bytesPerActivate::total       152635                       # Bytes accessed per row activation
system.mem_ctrls0.rdPerTurnAround::samples        39149                       # Reads before turning the bus around for writes
system.mem_ctrls0.rdPerTurnAround::mean      8.559095                       # Reads before turning the bus around for writes
system.mem_ctrls0.rdPerTurnAround::stdev    22.927984                       # Reads before turning the bus around for writes
system.mem_ctrls0.rdPerTurnAround::0-127        39136     99.97%     99.97% # Reads before turning the bus around for writes
system.mem_ctrls0.rdPerTurnAround::128-255           12      0.03%    100.00% # Reads before turning the bus around for writes
system.mem_ctrls0.rdPerTurnAround::3968-4095            1      0.00%    100.00% # Reads before turning the bus around for writes
system.mem_ctrls0.rdPerTurnAround::total        39149                       # Reads before turning the bus around for writes
system.mem_ctrls0.wrPerTurnAround::samples        39149                       # Writes before turning the bus around for reads
system.mem_ctrls0.wrPerTurnAround::mean      5.402718                       # Writes before turning the bus around for reads
system.mem_ctrls0.wrPerTurnAround::gmean     5.277493                       # Writes before turning the bus around for reads
system.mem_ctrls0.wrPerTurnAround::stdev     1.571731                       # Writes before turning the bus around for reads
system.mem_ctrls0.wrPerTurnAround::4-7          37196     95.01%     95.01% # Writes before turning the bus around for reads
system.mem_ctrls0.wrPerTurnAround::8-11          1141      2.91%     97.93% # Writes before turning the bus around for reads
system.mem_ctrls0.wrPerTurnAround::12-15          400      1.02%     98.95% # Writes before turning the bus around for reads
system.mem_ctrls0.wrPerTurnAround::16-19          412      1.05%    100.00% # Writes before turning the bus around for reads
system.mem_ctrls0.wrPerTurnAround::total        39149                       # Writes before turning the bus around for reads
system.mem_ctrls0.totQLat                 13711742781                       # Total ticks spent queuing
system.mem_ctrls0.totMemAccLat            19994849031                       # Total ticks spent from burst creation until serviced by the DRAM
system.mem_ctrls0.totBusLat                1675495000                       # Total ticks spent in databus transfers
system.mem_ctrls0.avgQLat                    40918.48                       # Average queueing delay per DRAM burst
system.mem_ctrls0.avgBusLat                   5000.00                       # Average bus latency per DRAM burst
system.mem_ctrls0.avgMemAccLat               59668.48                       # Average memory access latency per DRAM burst
system.mem_ctrls0.avgRdBW                      162.95                       # Average DRAM read bandwidth in MiByte/s
system.mem_ctrls0.avgWrBW                      102.85                       # Average achieved write bandwidth in MiByte/s
system.mem_ctrls0.avgRdBWSys                   162.96                       # Average system read bandwidth in MiByte/s
system.mem_ctrls0.avgWrBWSys                   102.85                       # Average system write bandwidth in MiByte/s
system.mem_ctrls0.peakBW                     12800.00                       # Theoretical peak bandwidth in MiByte/s
system.mem_ctrls0.busUtil                        2.08                       # Data bus utilization in percentage
system.mem_ctrls0.busUtilRead                    1.27                       # Data bus utilization in percentage for reads
system.mem_ctrls0.busUtilWrite                   0.80                       # Data bus utilization in percentage for writes
system.mem_ctrls0.avgRdQLen                      1.12                       # Average read queue length when enqueuing
system.mem_ctrls0.avgWrQLen                      2.96                       # Average write queue length when enqueuing
system.mem_ctrls0.readRowHits                  255029                       # Number of row buffer hits during reads
system.mem_ctrls0.writeRowHits                 138936                       # Number of row buffer hits during writes
system.mem_ctrls0.readRowHitRate                76.11                       # Row buffer hit rate for reads
system.mem_ctrls0.writeRowHitRate               65.69                       # Row buffer hit rate for writes
system.mem_ctrls0.avgGap                    240774.13                       # Average gap between requests
system.mem_ctrls0.pageHitRate                   72.07                       # Row buffer hit rate, read and write combined
system.mem_ctrls0.memoryStateTime::IDLE   28041392250                       # Time in different power states
system.mem_ctrls0.memoryStateTime::REF     4394780000                       # Time in different power states
system.mem_ctrls0.memoryStateTime::PRE_PDN            0                       # Time in different power states
system.mem_ctrls0.memoryStateTime::ACT    99175085250                       # Time in different power states
system.mem_ctrls0.memoryStateTime::ACT_PDN            0                       # Time in different power states
system.mem_ctrls0.actEnergy::0              582581160                       # Energy for activate commands per rank (pJ)
system.mem_ctrls0.actEnergy::1              571278960                       # Energy for activate commands per rank (pJ)
system.mem_ctrls0.preEnergy::0              317876625                       # Energy for precharge commands per rank (pJ)
system.mem_ctrls0.preEnergy::1              311709750                       # Energy for precharge commands per rank (pJ)
system.mem_ctrls0.readEnergy::0            1313777400                       # Energy for read commands per rank (pJ)
system.mem_ctrls0.readEnergy::1            1299636000                       # Energy for read commands per rank (pJ)
system.mem_ctrls0.writeEnergy::0            688052880                       # Energy for write commands per rank (pJ)
system.mem_ctrls0.writeEnergy::1            682389360                       # Energy for write commands per rank (pJ)
system.mem_ctrls0.refreshEnergy::0         8596189680                       # Energy for refresh commands per rank (pJ)
system.mem_ctrls0.refreshEnergy::1         8596189680                       # Energy for refresh commands per rank (pJ)
system.mem_ctrls0.actBackEnergy::0        50323495950                       # Energy for active background per rank (pJ)
system.mem_ctrls0.actBackEnergy::1        49889471445                       # Energy for active background per rank (pJ)
system.mem_ctrls0.preBackEnergy::0        34823328750                       # Energy for precharge background per rank (pJ)
system.mem_ctrls0.preBackEnergy::1        35204052000                       # Energy for precharge background per rank (pJ)
system.mem_ctrls0.totalEnergy::0          96645302445                       # Total energy per rank (pJ)
system.mem_ctrls0.totalEnergy::1          96554727195                       # Total energy per rank (pJ)
system.mem_ctrls0.averagePower::0          734.324057                       # Core power per rank (mW)
system.mem_ctrls0.averagePower::1          733.635854                       # Core power per rank (mW)
system.mem_ctrls1.bytes_read::ruby.dir_cntrl1     20798144                       # Number of bytes read from this memory
system.mem_ctrls1.bytes_read::total          20798144                       # Number of bytes read from this memory
system.mem_ctrls1.bytes_written::ruby.dir_cntrl1     12912128                       # Number of bytes written to this memory
system.mem_ctrls1.bytes_written::total       12912128                       # Number of bytes written to this memory
system.mem_ctrls1.num_reads::ruby.dir_cntrl1       324971                       # Number of read requests responded to by this memory
system.mem_ctrls1.num_reads::total             324971                       # Number of read requests responded to by this memory
system.mem_ctrls1.num_writes::ruby.dir_cntrl1       201752                       # Number of write requests responded to by this memory
system.mem_ctrls1.num_writes::total            201752                       # Number of write requests responded to by this memory
system.mem_ctrls1.bw_read::ruby.dir_cntrl1    158021258                       # Total read bandwidth from this memory (bytes/s)
system.mem_ctrls1.bw_read::total            158021258                       # Total read bandwidth from this memory (bytes/s)
system.mem_ctrls1.bw_write::ruby.dir_cntrl1     98104461                       # Write bandwidth from this memory (bytes/s)
system.mem_ctrls1.bw_write::total            98104461                       # Write bandwidth from this memory (bytes/s)
system.mem_ctrls1.bw_total::ruby.dir_cntrl1    256125719                       # Total bandwidth to/from this memory (bytes/s)
system.mem_ctrls1.bw_total::total           256125719                       # Total bandwidth to/from this memory (bytes/s)
system.mem_ctrls1.readReqs                     324971                       # Number of read requests accepted
system.mem_ctrls1.writeReqs                    201752                       # Number of write requests accepted
system.mem_ctrls1.readBursts                   324971                       # Number of DRAM read bursts, including those serviced by the write queue
system.mem_ctrls1.writeBursts                  201752                       # Number of DRAM write bursts, including those merged in the write queue
system.mem_ctrls1.bytesReadDRAM              20797056                       # Total number of bytes read from DRAM
system.mem_ctrls1.bytesReadWrQ                   1088                       # Total number of bytes read from write queue
system.mem_ctrls1.bytesWritten               12912000                       # Total number of bytes written to DRAM
system.mem_ctrls1.bytesReadSys               20798144                       # Total read bytes from the system interface side
system.mem_ctrls1.bytesWrittenSys            12912128                       # Total written bytes from the system interface side
system.mem_ctrls1.servicedByWrQ                    17                       # Number of DRAM read bursts serviced by the write queue
system.mem_ctrls1.mergedWrBursts                    0                       # Number of DRAM write bursts merged with an existing one
system.mem_ctrls1.neitherReadNorWriteReqs            0                       # Number of requests that are neither read nor write
system.mem_ctrls1.perBankRdBursts::0            20059                       # Per bank write bursts
system.mem_ctrls1.perBankRdBursts::1            20698                       # Per bank write bursts
system.mem_ctrls1.perBankRdBursts::2            20233                       # Per bank write bursts
system.mem_ctrls1.perBankRdBursts::3            20680                       # Per bank write bursts
system.mem_ctrls1.perBankRdBursts::4            20374                       # Per bank write bursts
system.mem_ctrls1.perBankRdBursts::5            20542                       # Per bank write bursts
system.mem_ctrls1.perBankRdBursts::6            20434                       # Per bank write bursts
system.mem_ctrls1.perBankRdBursts::7            20519                       # Per bank write bursts
system.mem_ctrls1.perBankRdBursts::8            20188                       # Per bank write bursts
system.mem_ctrls1.perBankRdBursts::9            20382                       # Per bank write bursts
system.mem_ctrls1.perBankRdBursts::10           20149                       # Per bank write bursts
system.mem_ctrls1.perBankRdBursts::11           20570                       # Per bank write bursts
system.mem_ctrls1.perBankRdBursts::12           20016                       # Per bank write bursts
system.mem_ctrls1.perBankRdBursts::13           19894                       # Per bank write bursts
system.mem_ctrls1.perBankRdBursts::14           20083                       # Per bank write bursts
system.mem_ctrls1.perBankRdBursts::15           20133                       # Per bank write bursts
system.mem_ctrls1.perBankWrBursts::0            12669                       # Per bank write bursts
system.mem_ctrls1.perBankWrBursts::1            12629                       # Per bank write bursts
system.mem_ctrls1.perBankWrBursts::2            12518                       # Per bank write bursts
system.mem_ctrls1.perBankWrBursts::3            12757                       # Per bank write bursts
system.mem_ctrls1.perBankWrBursts::4            12596                       # Per bank write bursts
system.mem_ctrls1.perBankWrBursts::5            12718                       # Per bank write bursts
system.mem_ctrls1.perBankWrBursts::6            12630                       # Per bank write bursts
system.mem_ctrls1.perBankWrBursts::7            12827                       # Per bank write bursts
system.mem_ctrls1.perBankWrBursts::8            12544                       # Per bank write bursts
system.mem_ctrls1.perBankWrBursts::9            12719                       # Per bank write bursts
system.mem_ctrls1.perBankWrBursts::10           12527                       # Per bank write bursts
system.mem_ctrls1.perBankWrBursts::11           12460                       # Per bank write bursts
system.mem_ctrls1.perBankWrBursts::12           12461                       # Per bank write bursts
system.mem_ctrls1.perBankWrBursts::13           12461                       # Per bank write bursts
system.mem_ctrls1.perBankWrBursts::14           12702                       # Per bank write bursts
system.mem_ctrls1.perBankWrBursts::15           12532                       # Per bank write bursts
system.mem_ctrls1.numRdRetry                     4408                       # Number of times read queue was full causing retry
system.mem_ctrls1.numWrRetry                     2194                       # Number of times write queue was full causing retry
system.mem_ctrls1.totGap                 131615294500                       # Total gap between requests
system.mem_ctrls1.readPktSize::0                    0                       # Read request sizes (log2)
system.mem_ctrls1.readPktSize::1                    0                       # Read request sizes (log2)
system.mem_ctrls1.readPktSize::2                    0                       # Read request sizes (log2)
system.mem_ctrls1.readPktSize::3                    0                       # Read request sizes (log2)
system.mem_ctrls1.readPktSize::4                    0                       # Read request sizes (log2)
system.mem_ctrls1.readPktSize::5                    0                       # Read request sizes (log2)
system.mem_ctrls1.readPktSize::6               324971                       # Read request sizes (log2)
system.mem_ctrls1.writePktSize::0                   0                       # Write request sizes (log2)
system.mem_ctrls1.writePktSize::1                   0                       # Write request sizes (log2)
system.mem_ctrls1.writePktSize::2                   0                       # Write request sizes (log2)
system.mem_ctrls1.writePktSize::3                   0                       # Write request sizes (log2)
system.mem_ctrls1.writePktSize::4                   0                       # Write request sizes (log2)
system.mem_ctrls1.writePktSize::5                   0                       # Write request sizes (log2)
system.mem_ctrls1.writePktSize::6              201752                       # Write request sizes (log2)
system.mem_ctrls1.rdQLenPdf::0                 184690                       # What read queue length does an incoming req see
system.mem_ctrls1.rdQLenPdf::1                  18102                       # What read queue length does an incoming req see
system.mem_ctrls1.rdQLenPdf::2                  16810                       # What read queue length does an incoming req see
system.mem_ctrls1.rdQLenPdf::3                  14791                       # What read queue length does an incoming req see
system.mem_ctrls1.rdQLenPdf::4                  13150                       # What read queue length does an incoming req see
system.mem_ctrls1.rdQLenPdf::5                  11306                       # What read queue length does an incoming req see
system.mem_ctrls1.rdQLenPdf::6                   9655                       # What read queue length does an incoming req see
system.mem_ctrls1.rdQLenPdf::7                   8377                       # What read queue length does an incoming req see
system.mem_ctrls1.rdQLenPdf::8                   7096                       # What read queue length does an incoming req see
system.mem_ctrls1.rdQLenPdf::9                   6131                       # What read queue length does an incoming req see
system.mem_ctrls1.rdQLenPdf::10                  5013                       # What read queue length does an incoming req see
system.mem_ctrls1.rdQLenPdf::11                  4288                       # What read queue length does an incoming req see
system.mem_ctrls1.rdQLenPdf::12                  3380                       # What read queue length does an incoming req see
system.mem_ctrls1.rdQLenPdf::13                  2843                       # What read queue length does an incoming req see
system.mem_ctrls1.rdQLenPdf::14                  2427                       # What read queue length does an incoming req see
system.mem_ctrls1.rdQLenPdf::15                  1933                       # What read queue length does an incoming req see
system.mem_ctrls1.rdQLenPdf::16                  1566                       # What read queue length does an incoming req see
system.mem_ctrls1.rdQLenPdf::17                  1210                       # What read queue length does an incoming req see
system.mem_ctrls1.rdQLenPdf::18                   947                       # What read queue length does an incoming req see
system.mem_ctrls1.rdQLenPdf::19                   894                       # What read queue length does an incoming req see
system.mem_ctrls1.rdQLenPdf::20                   750                       # What read queue length does an incoming req see
system.mem_ctrls1.rdQLenPdf::21                   625                       # What read queue length does an incoming req see
system.mem_ctrls1.rdQLenPdf::22                   536                       # What read queue length does an incoming req see
system.mem_ctrls1.rdQLenPdf::23                   502                       # What read queue length does an incoming req see
system.mem_ctrls1.rdQLenPdf::24                   448                       # What read queue length does an incoming req see
system.mem_ctrls1.rdQLenPdf::25                   409                       # What read queue length does an incoming req see
system.mem_ctrls1.rdQLenPdf::26                   405                       # What read queue length does an incoming req see
system.mem_ctrls1.rdQLenPdf::27                   406                       # What read queue length does an incoming req see
system.mem_ctrls1.rdQLenPdf::28                   382                       # What read queue length does an incoming req see
system.mem_ctrls1.rdQLenPdf::29                   408                       # What read queue length does an incoming req see
system.mem_ctrls1.rdQLenPdf::30                   411                       # What read queue length does an incoming req see
system.mem_ctrls1.rdQLenPdf::31                  5063                       # What read queue length does an incoming req see
system.mem_ctrls1.wrQLenPdf::0                  37048                       # What write queue length does an incoming req see
system.mem_ctrls1.wrQLenPdf::1                  38385                       # What write queue length does an incoming req see
system.mem_ctrls1.wrQLenPdf::2                  38702                       # What write queue length does an incoming req see
system.mem_ctrls1.wrQLenPdf::3                  38830                       # What write queue length does an incoming req see
system.mem_ctrls1.wrQLenPdf::4                  38857                       # What write queue length does an incoming req see
system.mem_ctrls1.wrQLenPdf::5                   2987                       # What write queue length does an incoming req see
system.mem_ctrls1.wrQLenPdf::6                   2675                       # What write queue length does an incoming req see
system.mem_ctrls1.wrQLenPdf::7                   4268                       # What write queue length does an incoming req see
system.mem_ctrls1.bytesPerActivate::samples       125719                       # Bytes accessed per row activation
system.mem_ctrls1.bytesPerActivate::mean   268.117437                       # Bytes accessed per row activation
system.mem_ctrls1.bytesPerActivate::gmean   205.660476                       # Bytes accessed per row activation
system.mem_ctrls1.bytesPerActivate::stdev   204.674438                       # Bytes accessed per row activation
system.mem_ctrls1.bytesPerActivate::0-127        25786     20.51%     20.51% # Bytes accessed per row activation
system.mem_ctrls1.bytesPerActivate::128-255        29984     23.85%     44.36% # Bytes accessed per row activation
system.mem_ctrls1.bytesPerActivate::256-383        52095     41.44%     85.80% # Bytes accessed per row activation
system.mem_ctrls1.bytesPerActivate::384-511         5020      3.99%     89.79% # Bytes accessed per row activation
system.mem_ctrls1.bytesPerActivate::512-639         4369      3.48%     93.27% # Bytes accessed per row activation
system.mem_ctrls1.bytesPerActivate::640-767         2245      1.79%     95.05% # Bytes accessed per row activation
system.mem_ctrls1.bytesPerActivate::768-895         1457      1.16%     96.21% # Bytes accessed per row activation
system.mem_ctrls1.bytesPerActivate::896-1023         1156      0.92%     97.13% # Bytes accessed per row activation
system.mem_ctrls1.bytesPerActivate::1024-1151         3607      2.87%    100.00% # Bytes accessed per row activation
system.mem_ctrls1.bytesPerActivate::total       125719                       # Bytes accessed per row activation
system.mem_ctrls1.rdPerTurnAround::samples        37292                       # Reads before turning the bus around for writes
system.mem_ctrls1.rdPerTurnAround::mean      8.713370                       # Reads before turning the bus around for writes
system.mem_ctrls1.rdPerTurnAround::stdev    20.255695                       # Reads before turning the bus around for writes
system.mem_ctrls1.rdPerTurnAround::0-127        37259     99.91%     99.91% # Reads before turning the bus around for writes
system.mem_ctrls1.rdPerTurnAround::128-255           31      0.08%     99.99% # Reads before turning the bus around for writes
system.mem_ctrls1.rdPerTurnAround::1152-1279            1      0.00%    100.00% # Reads before turning the bus around for writes
system.mem_ctrls1.rdPerTurnAround::2816-2943            1      0.00%    100.00% # Reads before turning the bus around for writes
system.mem_ctrls1.rdPerTurnAround::total        37292                       # Reads before turning the bus around for writes
system.mem_ctrls1.wrPerTurnAround::samples        37292                       # Writes before turning the bus around for reads
system.mem_ctrls1.wrPerTurnAround::mean      5.410008                       # Writes before turning the bus around for reads
system.mem_ctrls1.wrPerTurnAround::gmean     5.278485                       # Writes before turning the bus around for reads
system.mem_ctrls1.wrPerTurnAround::stdev     1.603483                       # Writes before turning the bus around for reads
system.mem_ctrls1.wrPerTurnAround::4-7          35125     94.19%     94.19% # Writes before turning the bus around for reads
system.mem_ctrls1.wrPerTurnAround::8-11          1376      3.69%     97.88% # Writes before turning the bus around for reads
system.mem_ctrls1.wrPerTurnAround::12-15          425      1.14%     99.02% # Writes before turning the bus around for reads
system.mem_ctrls1.wrPerTurnAround::16-19          366      0.98%    100.00% # Writes before turning the bus around for reads
system.mem_ctrls1.wrPerTurnAround::total        37292                       # Writes before turning the bus around for reads
system.mem_ctrls1.totQLat                 11996769763                       # Total ticks spent queuing
system.mem_ctrls1.totMemAccLat            18089657263                       # Total ticks spent from burst creation until serviced by the DRAM
system.mem_ctrls1.totBusLat                1624770000                       # Total ticks spent in databus transfers
system.mem_ctrls1.avgQLat                    36918.36                       # Average queueing delay per DRAM burst
system.mem_ctrls1.avgBusLat                   5000.00                       # Average bus latency per DRAM burst
system.mem_ctrls1.avgMemAccLat               55668.36                       # Average memory access latency per DRAM burst
system.mem_ctrls1.avgRdBW                      158.01                       # Average DRAM read bandwidth in MiByte/s
system.mem_ctrls1.avgWrBW                       98.10                       # Average achieved write bandwidth in MiByte/s
system.mem_ctrls1.avgRdBWSys                   158.02                       # Average system read bandwidth in MiByte/s
system.mem_ctrls1.avgWrBWSys                    98.10                       # Average system write bandwidth in MiByte/s
system.mem_ctrls1.peakBW                     12800.00                       # Theoretical peak bandwidth in MiByte/s
system.mem_ctrls1.busUtil                        2.00                       # Data bus utilization in percentage
system.mem_ctrls1.busUtilRead                    1.23                       # Data bus utilization in percentage for reads
system.mem_ctrls1.busUtilWrite                   0.77                       # Data bus utilization in percentage for writes
system.mem_ctrls1.avgRdQLen                      1.11                       # Average read queue length when enqueuing
system.mem_ctrls1.avgWrQLen                      2.97                       # Average write queue length when enqueuing
system.mem_ctrls1.readRowHits                  256172                       # Number of row buffer hits during reads
system.mem_ctrls1.writeRowHits                 144806                       # Number of row buffer hits during writes
system.mem_ctrls1.readRowHitRate                78.83                       # Row buffer hit rate for reads
system.mem_ctrls1.writeRowHitRate               71.77                       # Row buffer hit rate for writes
system.mem_ctrls1.avgGap                    249875.73                       # Average gap between requests
system.mem_ctrls1.pageHitRate                   76.13                       # Row buffer hit rate, read and write combined
system.mem_ctrls1.memoryStateTime::IDLE   28549207000                       # Time in different power states
system.mem_ctrls1.memoryStateTime::REF     4394780000                       # Time in different power states
system.mem_ctrls1.memoryStateTime::PRE_PDN            0                       # Time in different power states
system.mem_ctrls1.memoryStateTime::ACT    98667270500                       # Time in different power states
system.mem_ctrls1.memoryStateTime::ACT_PDN            0                       # Time in different power states
system.mem_ctrls1.actEnergy::0              481466160                       # Energy for activate commands per rank (pJ)
system.mem_ctrls1.actEnergy::1              468931680                       # Energy for activate commands per rank (pJ)
system.mem_ctrls1.preEnergy::0              262704750                       # Energy for precharge commands per rank (pJ)
system.mem_ctrls1.preEnergy::1              255865500                       # Energy for precharge commands per rank (pJ)
system.mem_ctrls1.readEnergy::0            1275323400                       # Energy for read commands per rank (pJ)
system.mem_ctrls1.readEnergy::1            1258990200                       # Energy for read commands per rank (pJ)
system.mem_ctrls1.writeEnergy::0            656709120                       # Energy for write commands per rank (pJ)
system.mem_ctrls1.writeEnergy::1            650488320                       # Energy for write commands per rank (pJ)
system.mem_ctrls1.refreshEnergy::0         8596189680                       # Energy for refresh commands per rank (pJ)
system.mem_ctrls1.refreshEnergy::1         8596189680                       # Energy for refresh commands per rank (pJ)
system.mem_ctrls1.actBackEnergy::0        49761460845                       # Energy for active background per rank (pJ)
system.mem_ctrls1.actBackEnergy::1        48820894155                       # Energy for active background per rank (pJ)
system.mem_ctrls1.preBackEnergy::0        35316342000                       # Energy for precharge background per rank (pJ)
system.mem_ctrls1.preBackEnergy::1        36141400500                       # Energy for precharge background per rank (pJ)
system.mem_ctrls1.totalEnergy::0          96350195955                       # Total energy per rank (pJ)
system.mem_ctrls1.totalEnergy::1          96192760035                       # Total energy per rank (pJ)
system.mem_ctrls1.averagePower::0          732.081798                       # Core power per rank (mW)
system.mem_ctrls1.averagePower::1          730.885579                       # Core power per rank (mW)
system.mem_ctrls2.bytes_read::ruby.dir_cntrl2     20797056                       # Number of bytes read from this memory
system.mem_ctrls2.bytes_read::total          20797056                       # Number of bytes read from this memory
system.mem_ctrls2.bytes_written::ruby.dir_cntrl2     12912512                       # Number of bytes written to this memory
system.mem_ctrls2.bytes_written::total       12912512                       # Number of bytes written to this memory
system.mem_ctrls2.num_reads::ruby.dir_cntrl2       324954                       # Number of read requests responded to by this memory
system.mem_ctrls2.num_reads::total             324954                       # Number of read requests responded to by this memory
system.mem_ctrls2.num_writes::ruby.dir_cntrl2       201758                       # Number of write requests responded to by this memory
system.mem_ctrls2.num_writes::total            201758                       # Number of write requests responded to by this memory
system.mem_ctrls2.bw_read::ruby.dir_cntrl2    158012992                       # Total read bandwidth from this memory (bytes/s)
system.mem_ctrls2.bw_read::total            158012992                       # Total read bandwidth from this memory (bytes/s)
system.mem_ctrls2.bw_write::ruby.dir_cntrl2     98107379                       # Write bandwidth from this memory (bytes/s)
system.mem_ctrls2.bw_write::total            98107379                       # Write bandwidth from this memory (bytes/s)
system.mem_ctrls2.bw_total::ruby.dir_cntrl2    256120370                       # Total bandwidth to/from this memory (bytes/s)
system.mem_ctrls2.bw_total::total           256120370                       # Total bandwidth to/from this memory (bytes/s)
system.mem_ctrls2.readReqs                     324954                       # Number of read requests accepted
system.mem_ctrls2.writeReqs                    201758                       # Number of write requests accepted
system.mem_ctrls2.readBursts                   324954                       # Number of DRAM read bursts, including those serviced by the write queue
system.mem_ctrls2.writeBursts                  201758                       # Number of DRAM write bursts, including those merged in the write queue
system.mem_ctrls2.bytesReadDRAM              20796032                       # Total number of bytes read from DRAM
system.mem_ctrls2.bytesReadWrQ                   1024                       # Total number of bytes read from write queue
system.mem_ctrls2.bytesWritten               12912448                       # Total number of bytes written to DRAM
system.mem_ctrls2.bytesReadSys               20797056                       # Total read bytes from the system interface side
system.mem_ctrls2.bytesWrittenSys            12912512                       # Total written bytes from the system interface side
system.mem_ctrls2.servicedByWrQ                    16                       # Number of DRAM read bursts serviced by the write queue
system.mem_ctrls2.mergedWrBursts                    0                       # Number of DRAM write bursts merged with an existing one
system.mem_ctrls2.neitherReadNorWriteReqs            0                       # Number of requests that are neither read nor write
system.mem_ctrls2.perBankRdBursts::0            20056                       # Per bank write bursts
system.mem_ctrls2.perBankRdBursts::1            20679                       # Per bank write bursts
system.mem_ctrls2.perBankRdBursts::2            20244                       # Per bank write bursts
system.mem_ctrls2.perBankRdBursts::3            20730                       # Per bank write bursts
system.mem_ctrls2.perBankRdBursts::4            20379                       # Per bank write bursts
system.mem_ctrls2.perBankRdBursts::5            20525                       # Per bank write bursts
system.mem_ctrls2.perBankRdBursts::6            20409                       # Per bank write bursts
system.mem_ctrls2.perBankRdBursts::7            20490                       # Per bank write bursts
system.mem_ctrls2.perBankRdBursts::8            20154                       # Per bank write bursts
system.mem_ctrls2.perBankRdBursts::9            20392                       # Per bank write bursts
system.mem_ctrls2.perBankRdBursts::10           20158                       # Per bank write bursts
system.mem_ctrls2.perBankRdBursts::11           20587                       # Per bank write bursts
system.mem_ctrls2.perBankRdBursts::12           20033                       # Per bank write bursts
system.mem_ctrls2.perBankRdBursts::13           19853                       # Per bank write bursts
system.mem_ctrls2.perBankRdBursts::14           20080                       # Per bank write bursts
system.mem_ctrls2.perBankRdBursts::15           20169                       # Per bank write bursts
system.mem_ctrls2.perBankWrBursts::0            12663                       # Per bank write bursts
system.mem_ctrls2.perBankWrBursts::1            12628                       # Per bank write bursts
system.mem_ctrls2.perBankWrBursts::2            12514                       # Per bank write bursts
system.mem_ctrls2.perBankWrBursts::3            12764                       # Per bank write bursts
system.mem_ctrls2.perBankWrBursts::4            12596                       # Per bank write bursts
system.mem_ctrls2.perBankWrBursts::5            12702                       # Per bank write bursts
system.mem_ctrls2.perBankWrBursts::6            12638                       # Per bank write bursts
system.mem_ctrls2.perBankWrBursts::7            12826                       # Per bank write bursts
system.mem_ctrls2.perBankWrBursts::8            12528                       # Per bank write bursts
system.mem_ctrls2.perBankWrBursts::9            12725                       # Per bank write bursts
system.mem_ctrls2.perBankWrBursts::10           12524                       # Per bank write bursts
system.mem_ctrls2.perBankWrBursts::11           12474                       # Per bank write bursts
system.mem_ctrls2.perBankWrBursts::12           12468                       # Per bank write bursts
system.mem_ctrls2.perBankWrBursts::13           12455                       # Per bank write bursts
system.mem_ctrls2.perBankWrBursts::14           12707                       # Per bank write bursts
system.mem_ctrls2.perBankWrBursts::15           12545                       # Per bank write bursts
system.mem_ctrls2.numRdRetry                     3864                       # Number of times read queue was full causing retry
system.mem_ctrls2.numWrRetry                     1999                       # Number of times write queue was full causing retry
system.mem_ctrls2.totGap                 131616024500                       # Total gap between requests
system.mem_ctrls2.readPktSize::0                    0                       # Read request sizes (log2)
system.mem_ctrls2.readPktSize::1                    0                       # Read request sizes (log2)
system.mem_ctrls2.readPktSize::2                    0                       # Read request sizes (log2)
system.mem_ctrls2.readPktSize::3                    0                       # Read request sizes (log2)
system.mem_ctrls2.readPktSize::4                    0                       # Read request sizes (log2)
system.mem_ctrls2.readPktSize::5                    0                       # Read request sizes (log2)
system.mem_ctrls2.readPktSize::6               324954                       # Read request sizes (log2)
system.mem_ctrls2.writePktSize::0                   0                       # Write request sizes (log2)
system.mem_ctrls2.writePktSize::1                   0                       # Write request sizes (log2)
system.mem_ctrls2.writePktSize::2                   0                       # Write request sizes (log2)
system.mem_ctrls2.writePktSize::3                   0                       # Write request sizes (log2)
system.mem_ctrls2.writePktSize::4                   0                       # Write request sizes (log2)
system.mem_ctrls2.writePktSize::5                   0                       # Write request sizes (log2)
system.mem_ctrls2.writePktSize::6              201758                       # Write request sizes (log2)
system.mem_ctrls2.rdQLenPdf::0                 184551                       # What read queue length does an incoming req see
system.mem_ctrls2.rdQLenPdf::1                  18278                       # What read queue length does an incoming req see
system.mem_ctrls2.rdQLenPdf::2                  16573                       # What read queue length does an incoming req see
system.mem_ctrls2.rdQLenPdf::3                  14696                       # What read queue length does an incoming req see
system.mem_ctrls2.rdQLenPdf::4                  12939                       # What read queue length does an incoming req see
system.mem_ctrls2.rdQLenPdf::5                  11465                       # What read queue length does an incoming req see
system.mem_ctrls2.rdQLenPdf::6                  10090                       # What read queue length does an incoming req see
system.mem_ctrls2.rdQLenPdf::7                   8693                       # What read queue length does an incoming req see
system.mem_ctrls2.rdQLenPdf::8                   7324                       # What read queue length does an incoming req see
system.mem_ctrls2.rdQLenPdf::9                   6226                       # What read queue length does an incoming req see
system.mem_ctrls2.rdQLenPdf::10                  5036                       # What read queue length does an incoming req see
system.mem_ctrls2.rdQLenPdf::11                  4184                       # What read queue length does an incoming req see
system.mem_ctrls2.rdQLenPdf::12                  3405                       # What read queue length does an incoming req see
system.mem_ctrls2.rdQLenPdf::13                  2831                       # What read queue length does an incoming req see
system.mem_ctrls2.rdQLenPdf::14                  2281                       # What read queue length does an incoming req see
system.mem_ctrls2.rdQLenPdf::15                  1921                       # What read queue length does an incoming req see
system.mem_ctrls2.rdQLenPdf::16                  1553                       # What read queue length does an incoming req see
system.mem_ctrls2.rdQLenPdf::17                  1312                       # What read queue length does an incoming req see
system.mem_ctrls2.rdQLenPdf::18                  1058                       # What read queue length does an incoming req see
system.mem_ctrls2.rdQLenPdf::19                   911                       # What read queue length does an incoming req see
system.mem_ctrls2.rdQLenPdf::20                   775                       # What read queue length does an incoming req see
system.mem_ctrls2.rdQLenPdf::21                   625                       # What read queue length does an incoming req see
system.mem_ctrls2.rdQLenPdf::22                   548                       # What read queue length does an incoming req see
system.mem_ctrls2.rdQLenPdf::23                   509                       # What read queue length does an incoming req see
system.mem_ctrls2.rdQLenPdf::24                   459                       # What read queue length does an incoming req see
system.mem_ctrls2.rdQLenPdf::25                   420                       # What read queue length does an incoming req see
system.mem_ctrls2.rdQLenPdf::26                   365                       # What read queue length does an incoming req see
system.mem_ctrls2.rdQLenPdf::27                   362                       # What read queue length does an incoming req see
system.mem_ctrls2.rdQLenPdf::28                   367                       # What read queue length does an incoming req see
system.mem_ctrls2.rdQLenPdf::29                   342                       # What read queue length does an incoming req see
system.mem_ctrls2.rdQLenPdf::30                   387                       # What read queue length does an incoming req see
system.mem_ctrls2.rdQLenPdf::31                  4452                       # What read queue length does an incoming req see
system.mem_ctrls2.wrQLenPdf::0                  37019                       # What write queue length does an incoming req see
system.mem_ctrls2.wrQLenPdf::1                  38356                       # What write queue length does an incoming req see
system.mem_ctrls2.wrQLenPdf::2                  38741                       # What write queue length does an incoming req see
system.mem_ctrls2.wrQLenPdf::3                  38885                       # What write queue length does an incoming req see
system.mem_ctrls2.wrQLenPdf::4                  38856                       # What write queue length does an incoming req see
system.mem_ctrls2.wrQLenPdf::5                   3111                       # What write queue length does an incoming req see
system.mem_ctrls2.wrQLenPdf::6                   2840                       # What write queue length does an incoming req see
system.mem_ctrls2.wrQLenPdf::7                   3950                       # What write queue length does an incoming req see
system.mem_ctrls2.bytesPerActivate::samples       125674                       # Bytes accessed per row activation
system.mem_ctrls2.bytesPerActivate::mean   268.208858                       # Bytes accessed per row activation
system.mem_ctrls2.bytesPerActivate::gmean   205.837118                       # Bytes accessed per row activation
system.mem_ctrls2.bytesPerActivate::stdev   204.136820                       # Bytes accessed per row activation
system.mem_ctrls2.bytesPerActivate::0-127        26009     20.70%     20.70% # Bytes accessed per row activation
system.mem_ctrls2.bytesPerActivate::128-255        29070     23.13%     43.83% # Bytes accessed per row activation
system.mem_ctrls2.bytesPerActivate::256-383        52895     42.09%     85.92% # Bytes accessed per row activation
system.mem_ctrls2.bytesPerActivate::384-511         4978      3.96%     89.88% # Bytes accessed per row activation
system.mem_ctrls2.bytesPerActivate::512-639         4367      3.47%     93.35% # Bytes accessed per row activation
system.mem_ctrls2.bytesPerActivate::640-767         2156      1.72%     95.07% # Bytes accessed per row activation
system.mem_ctrls2.bytesPerActivate::768-895         1489      1.18%     96.25% # Bytes accessed per row activation
system.mem_ctrls2.bytesPerActivate::896-1023         1083      0.86%     97.11% # Bytes accessed per row activation
system.mem_ctrls2.bytesPerActivate::1024-1151         3627      2.89%    100.00% # Bytes accessed per row activation
system.mem_ctrls2.bytesPerActivate::total       125674                       # Bytes accessed per row activation
system.mem_ctrls2.rdPerTurnAround::samples        37267                       # Reads before turning the bus around for writes
system.mem_ctrls2.rdPerTurnAround::mean      8.718759                       # Reads before turning the bus around for writes
system.mem_ctrls2.rdPerTurnAround::stdev    20.348052                       # Reads before turning the bus around for writes
system.mem_ctrls2.rdPerTurnAround::0-127        37239     99.92%     99.92% # Reads before turning the bus around for writes
system.mem_ctrls2.rdPerTurnAround::128-255           26      0.07%     99.99% # Reads before turning the bus around for writes
system.mem_ctrls2.rdPerTurnAround::1152-1279            1      0.00%    100.00% # Reads before turning the bus around for writes
system.mem_ctrls2.rdPerTurnAround::2816-2943            1      0.00%    100.00% # Reads before turning the bus around for writes
system.mem_ctrls2.rdPerTurnAround::total        37267                       # Reads before turning the bus around for writes
system.mem_ctrls2.wrPerTurnAround::samples        37267                       # Writes before turning the bus around for reads
system.mem_ctrls2.wrPerTurnAround::mean      5.413825                       # Writes before turning the bus around for reads
system.mem_ctrls2.wrPerTurnAround::gmean     5.281872                       # Writes before turning the bus around for reads
system.mem_ctrls2.wrPerTurnAround::stdev     1.603627                       # Writes before turning the bus around for reads
system.mem_ctrls2.wrPerTurnAround::4-7          35070     94.10%     94.10% # Writes before turning the bus around for reads
system.mem_ctrls2.wrPerTurnAround::8-11          1392      3.74%     97.84% # Writes before turning the bus around for reads
system.mem_ctrls2.wrPerTurnAround::12-15          436      1.17%     99.01% # Writes before turning the bus around for reads
system.mem_ctrls2.wrPerTurnAround::16-19          369      0.99%    100.00% # Writes before turning the bus around for reads
system.mem_ctrls2.wrPerTurnAround::total        37267                       # Writes before turning the bus around for reads
system.mem_ctrls2.totQLat                 11862353820                       # Total ticks spent queuing
system.mem_ctrls2.totMemAccLat            17954941320                       # Total ticks spent from burst creation until serviced by the DRAM
system.mem_ctrls2.totBusLat                1624690000                       # Total ticks spent in databus transfers
system.mem_ctrls2.avgQLat                    36506.51                       # Average queueing delay per DRAM burst
system.mem_ctrls2.avgBusLat                   5000.00                       # Average bus latency per DRAM burst
system.mem_ctrls2.avgMemAccLat               55256.51                       # Average memory access latency per DRAM burst
system.mem_ctrls2.avgRdBW                      158.01                       # Average DRAM read bandwidth in MiByte/s
system.mem_ctrls2.avgWrBW                       98.11                       # Average achieved write bandwidth in MiByte/s
system.mem_ctrls2.avgRdBWSys                   158.01                       # Average system read bandwidth in MiByte/s
system.mem_ctrls2.avgWrBWSys                    98.11                       # Average system write bandwidth in MiByte/s
system.mem_ctrls2.peakBW                     12800.00                       # Theoretical peak bandwidth in MiByte/s
system.mem_ctrls2.busUtil                        2.00                       # Data bus utilization in percentage
system.mem_ctrls2.busUtilRead                    1.23                       # Data bus utilization in percentage for reads
system.mem_ctrls2.busUtilWrite                   0.77                       # Data bus utilization in percentage for writes
system.mem_ctrls2.avgRdQLen                      1.11                       # Average read queue length when enqueuing
system.mem_ctrls2.avgWrQLen                      2.95                       # Average write queue length when enqueuing
system.mem_ctrls2.readRowHits                  255955                       # Number of row buffer hits during reads
system.mem_ctrls2.writeRowHits                 145059                       # Number of row buffer hits during writes
system.mem_ctrls2.readRowHitRate                78.77                       # Row buffer hit rate for reads
system.mem_ctrls2.writeRowHitRate               71.90                       # Row buffer hit rate for writes
system.mem_ctrls2.avgGap                    249882.34                       # Average gap between requests
system.mem_ctrls2.pageHitRate                   76.14                       # Row buffer hit rate, read and write combined
system.mem_ctrls2.memoryStateTime::IDLE   28403902500                       # Time in different power states
system.mem_ctrls2.memoryStateTime::REF     4394780000                       # Time in different power states
system.mem_ctrls2.memoryStateTime::PRE_PDN            0                       # Time in different power states
system.mem_ctrls2.memoryStateTime::ACT    98812575000                       # Time in different power states
system.mem_ctrls2.memoryStateTime::ACT_PDN            0                       # Time in different power states
system.mem_ctrls2.actEnergy::0              481942440                       # Energy for activate commands per rank (pJ)
system.mem_ctrls2.actEnergy::1              468107640                       # Energy for activate commands per rank (pJ)
system.mem_ctrls2.preEnergy::0              262964625                       # Energy for precharge commands per rank (pJ)
system.mem_ctrls2.preEnergy::1              255415875                       # Energy for precharge commands per rank (pJ)
system.mem_ctrls2.readEnergy::0            1275105000                       # Energy for read commands per rank (pJ)
system.mem_ctrls2.readEnergy::1            1259076000                       # Energy for read commands per rank (pJ)
system.mem_ctrls2.writeEnergy::0            656624880                       # Energy for write commands per rank (pJ)
system.mem_ctrls2.writeEnergy::1            650617920                       # Energy for write commands per rank (pJ)
system.mem_ctrls2.refreshEnergy::0         8596189680                       # Energy for refresh commands per rank (pJ)
system.mem_ctrls2.refreshEnergy::1         8596189680                       # Energy for refresh commands per rank (pJ)
system.mem_ctrls2.actBackEnergy::0        49492889100                       # Energy for active background per rank (pJ)
system.mem_ctrls2.actBackEnergy::1        48565037970                       # Energy for active background per rank (pJ)
system.mem_ctrls2.preBackEnergy::0        35551931250                       # Energy for precharge background per rank (pJ)
system.mem_ctrls2.preBackEnergy::1        36365835750                       # Energy for precharge background per rank (pJ)
system.mem_ctrls2.totalEnergy::0          96317646975                       # Total energy per rank (pJ)
system.mem_ctrls2.totalEnergy::1          96160280835                       # Total energy per rank (pJ)
system.mem_ctrls2.averagePower::0          731.834486                       # Core power per rank (mW)
system.mem_ctrls2.averagePower::1          730.638797                       # Core power per rank (mW)
system.mem_ctrls3.bytes_read::ruby.dir_cntrl3     20776064                       # Number of bytes read from this memory
system.mem_ctrls3.bytes_read::total          20776064                       # Number of bytes read from this memory
system.mem_ctrls3.bytes_written::ruby.dir_cntrl3     12911360                       # Number of bytes written to this memory
system.mem_ctrls3.bytes_written::total       12911360                       # Number of bytes written to this memory
system.mem_ctrls3.num_reads::ruby.dir_cntrl3       324626                       # Number of read requests responded to by this memory
system.mem_ctrls3.num_reads::total             324626                       # Number of read requests responded to by this memory
system.mem_ctrls3.num_writes::ruby.dir_cntrl3       201740                       # Number of write requests responded to by this memory
system.mem_ctrls3.num_writes::total            201740                       # Number of write requests responded to by this memory
system.mem_ctrls3.bw_read::ruby.dir_cntrl3    157853497                       # Total read bandwidth from this memory (bytes/s)
system.mem_ctrls3.bw_read::total            157853497                       # Total read bandwidth from this memory (bytes/s)
system.mem_ctrls3.bw_write::ruby.dir_cntrl3     98098626                       # Write bandwidth from this memory (bytes/s)
system.mem_ctrls3.bw_write::total            98098626                       # Write bandwidth from this memory (bytes/s)
system.mem_ctrls3.bw_total::ruby.dir_cntrl3    255952124                       # Total bandwidth to/from this memory (bytes/s)
system.mem_ctrls3.bw_total::total           255952124                       # Total bandwidth to/from this memory (bytes/s)
system.mem_ctrls3.readReqs                     324626                       # Number of read requests accepted
system.mem_ctrls3.writeReqs                    201740                       # Number of write requests accepted
system.mem_ctrls3.readBursts                   324626                       # Number of DRAM read bursts, including those serviced by the write queue
system.mem_ctrls3.writeBursts                  201740                       # Number of DRAM write bursts, including those merged in the write queue
system.mem_ctrls3.bytesReadDRAM              20775232                       # Total number of bytes read from DRAM
system.mem_ctrls3.bytesReadWrQ                    832                       # Total number of bytes read from write queue
system.mem_ctrls3.bytesWritten               12911232                       # Total number of bytes written to DRAM
system.mem_ctrls3.bytesReadSys               20776064                       # Total read bytes from the system interface side
system.mem_ctrls3.bytesWrittenSys            12911360                       # Total written bytes from the system interface side
system.mem_ctrls3.servicedByWrQ                    13                       # Number of DRAM read bursts serviced by the write queue
system.mem_ctrls3.mergedWrBursts                    0                       # Number of DRAM write bursts merged with an existing one
system.mem_ctrls3.neitherReadNorWriteReqs            0                       # Number of requests that are neither read nor write
system.mem_ctrls3.perBankRdBursts::0            20050                       # Per bank write bursts
system.mem_ctrls3.perBankRdBursts::1            20650                       # Per bank write bursts
system.mem_ctrls3.perBankRdBursts::2            20160                       # Per bank write bursts
system.mem_ctrls3.perBankRdBursts::3            20701                       # Per bank write bursts
system.mem_ctrls3.perBankRdBursts::4            20308                       # Per bank write bursts
system.mem_ctrls3.perBankRdBursts::5            20518                       # Per bank write bursts
system.mem_ctrls3.perBankRdBursts::6            20426                       # Per bank write bursts
system.mem_ctrls3.perBankRdBursts::7            20473                       # Per bank write bursts
system.mem_ctrls3.perBankRdBursts::8            20145                       # Per bank write bursts
system.mem_ctrls3.perBankRdBursts::9            20381                       # Per bank write bursts
system.mem_ctrls3.perBankRdBursts::10           20196                       # Per bank write bursts
system.mem_ctrls3.perBankRdBursts::11           20539                       # Per bank write bursts
system.mem_ctrls3.perBankRdBursts::12           19979                       # Per bank write bursts
system.mem_ctrls3.perBankRdBursts::13           19846                       # Per bank write bursts
system.mem_ctrls3.perBankRdBursts::14           20101                       # Per bank write bursts
system.mem_ctrls3.perBankRdBursts::15           20140                       # Per bank write bursts
system.mem_ctrls3.perBankWrBursts::0            12669                       # Per bank write bursts
system.mem_ctrls3.perBankWrBursts::1            12618                       # Per bank write bursts
system.mem_ctrls3.perBankWrBursts::2            12522                       # Per bank write bursts
system.mem_ctrls3.perBankWrBursts::3            12755                       # Per bank write bursts
system.mem_ctrls3.perBankWrBursts::4            12595                       # Per bank write bursts
system.mem_ctrls3.perBankWrBursts::5            12705                       # Per bank write bursts
system.mem_ctrls3.perBankWrBursts::6            12634                       # Per bank write bursts
system.mem_ctrls3.perBankWrBursts::7            12819                       # Per bank write bursts
system.mem_ctrls3.perBankWrBursts::8            12525                       # Per bank write bursts
system.mem_ctrls3.perBankWrBursts::9            12728                       # Per bank write bursts
system.mem_ctrls3.perBankWrBursts::10           12524                       # Per bank write bursts
system.mem_ctrls3.perBankWrBursts::11           12480                       # Per bank write bursts
system.mem_ctrls3.perBankWrBursts::12           12464                       # Per bank write bursts
system.mem_ctrls3.perBankWrBursts::13           12460                       # Per bank write bursts
system.mem_ctrls3.perBankWrBursts::14           12713                       # Per bank write bursts
system.mem_ctrls3.perBankWrBursts::15           12527                       # Per bank write bursts
system.mem_ctrls3.numRdRetry                     2862                       # Number of times read queue was full causing retry
system.mem_ctrls3.numWrRetry                     1749                       # Number of times write queue was full causing retry
system.mem_ctrls3.totGap                 131615294500                       # Total gap between requests
system.mem_ctrls3.readPktSize::0                    0                       # Read request sizes (log2)
system.mem_ctrls3.readPktSize::1                    0                       # Read request sizes (log2)
system.mem_ctrls3.readPktSize::2                    0                       # Read request sizes (log2)
system.mem_ctrls3.readPktSize::3                    0                       # Read request sizes (log2)
system.mem_ctrls3.readPktSize::4                    0                       # Read request sizes (log2)
system.mem_ctrls3.readPktSize::5                    0                       # Read request sizes (log2)
system.mem_ctrls3.readPktSize::6               324626                       # Read request sizes (log2)
system.mem_ctrls3.writePktSize::0                   0                       # Write request sizes (log2)
system.mem_ctrls3.writePktSize::1                   0                       # Write request sizes (log2)
system.mem_ctrls3.writePktSize::2                   0                       # Write request sizes (log2)
system.mem_ctrls3.writePktSize::3                   0                       # Write request sizes (log2)
system.mem_ctrls3.writePktSize::4                   0                       # Write request sizes (log2)
system.mem_ctrls3.writePktSize::5                   0                       # Write request sizes (log2)
system.mem_ctrls3.writePktSize::6              201740                       # Write request sizes (log2)
system.mem_ctrls3.rdQLenPdf::0                 184338                       # What read queue length does an incoming req see
system.mem_ctrls3.rdQLenPdf::1                  18057                       # What read queue length does an incoming req see
system.mem_ctrls3.rdQLenPdf::2                  16915                       # What read queue length does an incoming req see
system.mem_ctrls3.rdQLenPdf::3                  14678                       # What read queue length does an incoming req see
system.mem_ctrls3.rdQLenPdf::4                  13305                       # What read queue length does an incoming req see
system.mem_ctrls3.rdQLenPdf::5                  11672                       # What read queue length does an incoming req see
system.mem_ctrls3.rdQLenPdf::6                   9863                       # What read queue length does an incoming req see
system.mem_ctrls3.rdQLenPdf::7                   8540                       # What read queue length does an incoming req see
system.mem_ctrls3.rdQLenPdf::8                   7222                       # What read queue length does an incoming req see
system.mem_ctrls3.rdQLenPdf::9                   6018                       # What read queue length does an incoming req see
system.mem_ctrls3.rdQLenPdf::10                  4908                       # What read queue length does an incoming req see
system.mem_ctrls3.rdQLenPdf::11                  4108                       # What read queue length does an incoming req see
system.mem_ctrls3.rdQLenPdf::12                  3403                       # What read queue length does an incoming req see
system.mem_ctrls3.rdQLenPdf::13                  2809                       # What read queue length does an incoming req see
system.mem_ctrls3.rdQLenPdf::14                  2307                       # What read queue length does an incoming req see
system.mem_ctrls3.rdQLenPdf::15                  1911                       # What read queue length does an incoming req see
system.mem_ctrls3.rdQLenPdf::16                  1616                       # What read queue length does an incoming req see
system.mem_ctrls3.rdQLenPdf::17                  1328                       # What read queue length does an incoming req see
system.mem_ctrls3.rdQLenPdf::18                  1161                       # What read queue length does an incoming req see
system.mem_ctrls3.rdQLenPdf::19                   993                       # What read queue length does an incoming req see
system.mem_ctrls3.rdQLenPdf::20                   871                       # What read queue length does an incoming req see
system.mem_ctrls3.rdQLenPdf::21                   751                       # What read queue length does an incoming req see
system.mem_ctrls3.rdQLenPdf::22                   678                       # What read queue length does an incoming req see
system.mem_ctrls3.rdQLenPdf::23                   570                       # What read queue length does an incoming req see
system.mem_ctrls3.rdQLenPdf::24                   507                       # What read queue length does an incoming req see
[...]
system.ruby.L2Cache_Controller.S_I.Ack_all::total           32                      
system.ruby.L2Cache_Controller.ISS.Mem_Data |       25510      5.06%      5.06% |       15488      3.07%      8.13% |       15520      3.08%     11.21% |       15471      3.07%     14.28% |       15445      3.06%     17.34% |       15419      3.06%     20.40% |       15426      3.06%     23.46% |       15428      3.06%     26.51% |       15463      3.07%     29.58% |       15474      3.07%     32.65% |       15498      3.07%     35.72% |       15422      3.06%     38.78% |       15439      3.06%     41.84% |       15441      3.06%     44.90% |       15452      3.06%     47.97% |       15412      3.06%     51.03% |       15428      3.06%     54.08% |       15419      3.06%     57.14% |       15448      3.06%     60.21% |       15426      3.06%     63.27% |       15449      3.06%     66.33% |       15458      3.07%     69.39% |       15460      3.07%     72.46% |       15438      3.06%     75.52% |       15449      3.06%     78.58% |       15444      3.06%     81.65% |       15424      3.06%     84.71% |       15408      3.06%     87.76% |       15449      3.06%     90.83% |       15411      3.06%     93.88% |       15411      3.06%     96.94% |       15444      3.06%    100.00%
system.ruby.L2Cache_Controller.ISS.Mem_Data::total       504274                      
system.ruby.L2Cache_Controller.IS.Mem_Data |         503      3.21%      3.21% |         453      2.89%      6.09% |         438      2.79%      8.89% |         449      2.86%     11.75% |         450      2.87%     14.62% |         430      2.74%     17.36% |         472      3.01%     20.37% |         491      3.13%     23.50% |         505      3.22%     26.72% |         445      2.84%     29.56% |         487      3.10%     32.66% |         498      3.17%     35.83% |         551      3.51%     39.35% |         523      3.33%     42.68% |         510      3.25%     45.93% |         492      3.14%     49.07% |         515      3.28%     52.35% |         532      3.39%     55.74% |         529      3.37%     59.12% |         483      3.08%     62.20% |         473      3.02%     65.21% |         523      3.33%     68.55% |         477      3.04%     71.59% |         450      2.87%     74.45% |         519      3.31%     77.76% |         578      3.68%     81.45% |         522      3.33%     84.78% |         479      3.05%     87.83% |         456      2.91%     90.74% |         511      3.26%     93.99% |         488      3.11%     97.11% |         454      2.89%    100.00%
system.ruby.L2Cache_Controller.IS.Mem_Data::total        15686                      
system.ruby.L2Cache_Controller.IM.Mem_Data |       24739      3.13%      3.13% |       24665      3.12%      6.26% |       24674      3.12%      9.38% |       24679      3.13%     12.51% |       24670      3.12%     15.63% |       24674      3.12%     18.75% |       24675      3.12%     21.88% |       24666      3.12%     25.00% |       24681      3.13%     28.13% |       24680      3.13%     31.25% |       24663      3.12%     34.38% |       24687      3.13%     37.50% |       24674      3.12%     40.63% |       24671      3.12%     43.75% |       24669      3.12%     46.88% |       24662      3.12%     50.00% |       24683      3.13%     53.12% |       24680      3.13%     56.25% |       24677      3.12%     59.37% |       24675      3.12%     62.50% |       24689      3.13%     65.63% |       24700      3.13%     68.75% |       24670      3.12%     71.88% |       24674      3.12%     75.00% |       24686      3.13%     78.13% |       24680      3.13%     81.25% |       24683      3.13%     84.38% |       24670      3.12%     87.50% |       24671      3.12%     90.63% |       24672      3.12%     93.75% |       24681      3.13%     96.88% |       24668      3.12%    100.00%
system.ruby.L2Cache_Controller.IM.Mem_Data::total       789688                      
system.ruby.L2Cache_Controller.SS_MB.Exclusive_Unblock |           2      4.17%      4.17% |           4      8.33%     12.50% |           5     10.42%     22.92% |           3      6.25%     29.17% |           0      0.00%     29.17% |           0      0.00%     29.17% |           0      0.00%     29.17% |           0      0.00%     29.17% |           1      2.08%     31.25% |           1      2.08%     33.33% |           0      0.00%     33.33% |           1      2.08%     35.42% |           6     12.50%     47.92% |           0      0.00%     47.92% |           2      4.17%     52.08% |           0      0.00%     52.08% |           0      0.00%     52.08% |           0      0.00%     52.08% |           7     14.58%     66.67% |           5     10.42%     77.08% |           1      2.08%     79.17% |           0      0.00%     79.17% |           0      0.00%     79.17% |           0      0.00%     79.17% |           1      2.08%     81.25% |           1      2.08%     83.33% |           1      2.08%     85.42% |           1      2.08%     87.50% |           5     10.42%     97.92% |           0      0.00%     97.92% |           1      2.08%    100.00% |           0      0.00%    100.00%
system.ruby.L2Cache_Controller.SS_MB.Exclusive_Unblock::total           48                      
system.ruby.L2Cache_Controller.MT_MB.L1_PUTX |           7    100.00%    100.00% |           0      0.00%    100.00% |           0      0.00%    100.00% |           0      0.00%    100.00% |           0      0.00%    100.00% |           0      0.00%    100.00% |           0      0.00%    100.00% |           0      0.00%    100.00% |           0      0.00%    100.00% |           0      0.00%    100.00% |           0      0.00%    100.00% |           0      0.00%    100.00% |           0      0.00%    100.00% |           0      0.00%    100.00% |           0      0.00%    100.00% |           0      0.00%    100.00% |           0      0.00%    100.00% |           0      0.00%    100.00% |           0      0.00%    100.00% |           0      0.00%    100.00% |           0      0.00%    100.00% |           0      0.00%    100.00% |           0      0.00%    100.00% |           0      0.00%    100.00% |           0      0.00%    100.00% |           0      0.00%    100.00% |           0      0.00%    100.00% |           0      0.00%    100.00% |           0      0.00%    100.00% |           0      0.00%    100.00% |           0      0.00%    100.00% |           0      0.00%    100.00%
system.ruby.L2Cache_Controller.MT_MB.L1_PUTX::total            7                      
system.ruby.L2Cache_Controller.MT_MB.Exclusive_Unblock |      171826      9.58%      9.58% |       54287      3.03%     12.60% |       49288      2.75%     15.35% |       52996      2.95%     18.30% |       53513      2.98%     21.29% |       49517      2.76%     24.05% |       45955      2.56%     26.61% |       45968      2.56%     29.17% |       51558      2.87%     32.04% |       49821      2.78%     34.82% |       54072      3.01%     37.84% |       51032      2.84%     40.68% |       48293      2.69%     43.37% |       46917      2.62%     45.99% |       47889      2.67%     48.66% |       46614      2.60%     51.25% |       50580      2.82%     54.07% |       48373      2.70%     56.77% |       49903      2.78%     59.55% |       54013      3.01%     62.56% |       54530      3.04%     65.60% |       63388      3.53%     69.13% |       58006      3.23%     72.37% |       53249      2.97%     75.34% |       53491      2.98%     78.32% |       51441      2.87%     81.18% |       52509      2.93%     84.11% |       52310      2.92%     87.03% |       55510      3.09%     90.12% |       55168      3.07%     93.20% |       63474      3.54%     96.73% |       58601      3.27%    100.00%
system.ruby.L2Cache_Controller.MT_MB.Exclusive_Unblock::total      1794092                      
system.ruby.L2Cache_Controller.MT_IIB.WB_Data |           0      0.00%      0.00% |           0      0.00%      0.00% |           1      7.14%      7.14% |           1      7.14%     14.29% |           1      7.14%     21.43% |           0      0.00%     21.43% |           1      7.14%     28.57% |           0      0.00%     28.57% |           1      7.14%     35.71% |           1      7.14%     42.86% |           1      7.14%     50.00% |           1      7.14%     57.14% |           1      7.14%     64.29% |           0      0.00%     64.29% |           1      7.14%     71.43% |           1      7.14%     78.57% |           1      7.14%     85.71% |           1      7.14%     92.86% |           1      7.14%    100.00% |           0      0.00%    100.00% |           0      0.00%    100.00% |           0      0.00%    100.00% |           0      0.00%    100.00% |           0      0.00%    100.00% |           0      0.00%    100.00% |           0      0.00%    100.00% |           0      0.00%    100.00% |           0      0.00%    100.00% |           0      0.00%    100.00% |           0      0.00%    100.00% |           0      0.00%    100.00% |           0      0.00%    100.00%
system.ruby.L2Cache_Controller.MT_IIB.WB_Data::total           14                      
system.ruby.L2Cache_Controller.MT_IIB.WB_Data_clean |           5    100.00%    100.00% |           0      0.00%    100.00% |           0      0.00%    100.00% |           0      0.00%    100.00% |           0      0.00%    100.00% |           0      0.00%    100.00% |           0      0.00%    100.00% |           0      0.00%    100.00% |           0      0.00%    100.00% |           0      0.00%    100.00% |           0      0.00%    100.00% |           0      0.00%    100.00% |           0      0.00%    100.00% |           0      0.00%    100.00% |           0      0.00%    100.00% |           0      0.00%    100.00% |           0      0.00%    100.00% |           0      0.00%    100.00% |           0      0.00%    100.00% |           0      0.00%    100.00% |           0      0.00%    100.00% |           0      0.00%    100.00% |           0      0.00%    100.00% |           0      0.00%    100.00% |           0      0.00%    100.00% |           0      0.00%    100.00% |           0      0.00%    100.00% |           0      0.00%    100.00% |           0      0.00%    100.00% |           0      0.00%    100.00% |           0      0.00%    100.00% |           0      0.00%    100.00%
system.ruby.L2Cache_Controller.MT_IIB.WB_Data_clean::total            5                      
system.ruby.L2Cache_Controller.MT_IIB.Unblock |           0      0.00%      0.00% |           0      0.00%      0.00% |           0      0.00%      0.00% |           0      0.00%      0.00% |           0      0.00%      0.00% |           0      0.00%      0.00% |           0      0.00%      0.00% |           1     50.00%     50.00% |           0      0.00%     50.00% |           0      0.00%     50.00% |           0      0.00%     50.00% |           0      0.00%     50.00% |           0      0.00%     50.00% |           1     50.00%    100.00% |           0      0.00%    100.00% |           0      0.00%    100.00% |           0      0.00%    100.00% |           0      0.00%    100.00% |           0      0.00%    100.00% |           0      0.00%    100.00% |           0      0.00%    100.00% |           0      0.00%    100.00% |           0      0.00%    100.00% |           0      0.00%    100.00% |           0      0.00%    100.00% |           0      0.00%    100.00% |           0      0.00%    100.00% |           0      0.00%    100.00% |           0      0.00%    100.00% |           0      0.00%    100.00% |           0      0.00%    100.00% |           0      0.00%    100.00%
system.ruby.L2Cache_Controller.MT_IIB.Unblock::total            2                      
system.ruby.L2Cache_Controller.MT_IB.WB_Data |           0      0.00%      0.00% |           0      0.00%      0.00% |           0      0.00%      0.00% |           0      0.00%      0.00% |           0      0.00%      0.00% |           0      0.00%      0.00% |           0      0.00%      0.00% |           1     50.00%     50.00% |           0      0.00%     50.00% |           0      0.00%     50.00% |           0      0.00%     50.00% |           0      0.00%     50.00% |           0      0.00%     50.00% |           1     50.00%    100.00% |           0      0.00%    100.00% |           0      0.00%    100.00% |           0      0.00%    100.00% |           0      0.00%    100.00% |           0      0.00%    100.00% |           0      0.00%    100.00% |           0      0.00%    100.00% |           0      0.00%    100.00% |           0      0.00%    100.00% |           0      0.00%    100.00% |           0      0.00%    100.00% |           0      0.00%    100.00% |           0      0.00%    100.00% |           0      0.00%    100.00% |           0      0.00%    100.00% |           0      0.00%    100.00% |           0      0.00%    100.00% |           0      0.00%    100.00%
system.ruby.L2Cache_Controller.MT_IB.WB_Data::total            2                      
system.ruby.L2Cache_Controller.MT_SB.Unblock |           5     26.32%     26.32% |           0      0.00%     26.32% |           1      5.26%     31.58% |           1      5.26%     36.84% |           1      5.26%     42.11% |           0      0.00%     42.11% |           1      5.26%     47.37% |           0      0.00%     47.37% |           1      5.26%     52.63% |           1      5.26%     57.89% |           1      5.26%     63.16% |           1      5.26%     68.42% |           1      5.26%     73.68% |           0      0.00%     73.68% |           1      5.26%     78.95% |           1      5.26%     84.21% |           1      5.26%     89.47% |           1      5.26%     94.74% |           1      5.26%    100.00% |           0      0.00%    100.00% |           0      0.00%    100.00% |           0      0.00%    100.00% |           0      0.00%    100.00% |           0      0.00%    100.00% |           0      0.00%    100.00% |           0      0.00%    100.00% |           0      0.00%    100.00% |           0      0.00%    100.00% |           0      0.00%    100.00% |           0      0.00%    100.00% |           0      0.00%    100.00% |           0      0.00%    100.00%
system.ruby.L2Cache_Controller.MT_SB.Unblock::total           19                      
system.ruby.SimicsNetworkPortInterface_Controller.MessageSend |      293263     22.89%     22.89% |      640623     50.00%     72.89% |       42934      3.35%     76.24% |       44274      3.46%     79.70% |       43258      3.38%     83.07% |       43625      3.40%     86.48% |       43713      3.41%     89.89% |       44459      3.47%     93.36% |       42381      3.31%     96.67% |       42716      3.33%    100.00% |           0      0.00%    100.00% |           0      0.00%    100.00% |           0      0.00%    100.00% |           0      0.00%    100.00% |           0      0.00%    100.00% |           0      0.00%    100.00% |           0      0.00%    100.00% |           0      0.00%    100.00% |           0      0.00%    100.00% |           0      0.00%    100.00% |           0      0.00%    100.00% |           0      0.00%    100.00% |           0      0.00%    100.00% |           0      0.00%    100.00% |           0      0.00%    100.00% |           0      0.00%    100.00% |           0      0.00%    100.00% |           0      0.00%    100.00% |           0      0.00%    100.00% |           0      0.00%    100.00% |           0      0.00%    100.00% |           0      0.00%    100.00%
system.ruby.SimicsNetworkPortInterface_Controller.MessageSend::total      1281246                      
system.ruby.SimicsNetworkPortInterface_Controller.MessageRecv |      293263     22.89%     22.89% |      640623     50.00%     72.89% |       42934      3.35%     76.24% |       44274      3.46%     79.70% |       43258      3.38%     83.07% |       43625      3.40%     86.48% |       43713      3.41%     89.89% |       44459      3.47%     93.36% |       42381      3.31%     96.67% |       42716      3.33%    100.00% |           0      0.00%    100.00% |           0      0.00%    100.00% |           0      0.00%    100.00% |           0      0.00%    100.00% |           0      0.00%    100.00% |           0      0.00%    100.00% |           0      0.00%    100.00% |           0      0.00%    100.00% |           0      0.00%    100.00% |           0      0.00%    100.00% |           0      0.00%    100.00% |           0      0.00%    100.00% |           0      0.00%    100.00% |           0      0.00%    100.00% |           0      0.00%    100.00% |           0      0.00%    100.00% |           0      0.00%    100.00% |           0      0.00%    100.00% |           0      0.00%    100.00% |           0      0.00%    100.00% |           0      0.00%    100.00% |           0      0.00%    100.00%
system.ruby.SimicsNetworkPortInterface_Controller.MessageRecv::total      1281246                      
system.ruby.SimicsNetworkPortInterface_Controller.A.MessageSend |      293263     22.89%     22.89% |      640623     50.00%     72.89% |       42934      3.35%     76.24% |       44274      3.46%     79.70% |       43258      3.38%     83.07% |       43625      3.40%     86.48% |       43713      3.41%     89.89% |       44459      3.47%     93.36% |       42381      3.31%     96.67% |       42716      3.33%    100.00% |           0      0.00%    100.00% |           0      0.00%    100.00% |           0      0.00%    100.00% |           0      0.00%    100.00% |           0      0.00%    100.00% |           0      0.00%    100.00% |           0      0.00%    100.00% |           0      0.00%    100.00% |           0      0.00%    100.00% |           0      0.00%    100.00% |           0      0.00%    100.00% |           0      0.00%    100.00% |           0      0.00%    100.00% |           0      0.00%    100.00% |           0      0.00%    100.00% |           0      0.00%    100.00% |           0      0.00%    100.00% |           0      0.00%    100.00% |           0      0.00%    100.00% |           0      0.00%    100.00% |           0      0.00%    100.00% |           0      0.00%    100.00%
system.ruby.SimicsNetworkPortInterface_Controller.A.MessageSend::total      1281246                      
system.ruby.SimicsNetworkPortInterface_Controller.A.MessageRecv |      293263     22.89%     22.89% |      640623     50.00%     72.89% |       42934      3.35%     76.24% |       44274      3.46%     79.70% |       43258      3.38%     83.07% |       43625      3.40%     86.48% |       43713      3.41%     89.89% |       44459      3.47%     93.36% |       42381      3.31%     96.67% |       42716      3.33%    100.00% |           0      0.00%    100.00% |           0      0.00%    100.00% |           0      0.00%    100.00% |           0      0.00%    100.00% |           0      0.00%    100.00% |           0      0.00%    100.00% |           0      0.00%    100.00% |           0      0.00%    100.00% |           0      0.00%    100.00% |           0      0.00%    100.00% |           0      0.00%    100.00% |           0      0.00%    100.00% |           0      0.00%    100.00% |           0      0.00%    100.00% |           0      0.00%    100.00% |           0      0.00%    100.00% |           0      0.00%    100.00% |           0      0.00%    100.00% |           0      0.00%    100.00% |           0      0.00%    100.00% |           0      0.00%    100.00% |           0      0.00%    100.00%
system.ruby.SimicsNetworkPortInterface_Controller.A.MessageRecv::total      1281246                      
system.switch_cpus.kern.inst.arm                    0                       # number of arm instructions executed
system.switch_cpus.kern.inst.quiesce                0                       # number of quiesce instructions executed

---------- End Simulation Statistics   ----------
