
---------- Begin Simulation Statistics ----------
sim_seconds                                  0.059771                       # Number of seconds simulated
sim_ticks                                 59771065500                       # Number of ticks simulated
final_tick                               5235939144000                       # Number of ticks from beginning of simulation (restored from checkpoints and never reset)
sim_freq                                 1000000000000                       # Frequency of simulated ticks
host_inst_rate                                  82519                       # Simulator instruction rate (inst/s)
host_op_rate                                   146798                       # Simulator op (including micro ops) rate (op/s)
host_tick_rate                              124048376                       # Simulator tick rate (ticks/s)
host_mem_usage                                4826844                       # Number of bytes of host memory used
host_seconds                                   481.84                       # Real time elapsed on the host
sim_insts                                    39760641                       # Number of instructions simulated
sim_ops                                      70732627                       # Number of ops (including micro ops) simulated
system.voltage_domain.voltage                       1                       # Voltage in Volts
system.clk_domain.clock                           500                       # Clock period in ticks
system.mem_ctrls0.bytes_read::ruby.dir_cntrl0     14034304                       # Number of bytes read from this memory
system.mem_ctrls0.bytes_read::total          14034304                       # Number of bytes read from this memory
system.mem_ctrls0.bytes_written::ruby.dir_cntrl0      4007616                       # Number of bytes written to this memory
system.mem_ctrls0.bytes_written::total        4007616                       # Number of bytes written to this memory
system.mem_ctrls0.num_reads::ruby.dir_cntrl0       219286                       # Number of read requests responded to by this memory
system.mem_ctrls0.num_reads::total             219286                       # Number of read requests responded to by this memory
system.mem_ctrls0.num_writes::ruby.dir_cntrl0        62619                       # Number of write requests responded to by this memory
system.mem_ctrls0.num_writes::total             62619                       # Number of write requests responded to by this memory
system.mem_ctrls0.bw_read::ruby.dir_cntrl0    234800967                       # Total read bandwidth from this memory (bytes/s)
system.mem_ctrls0.bw_read::total            234800967                       # Total read bandwidth from this memory (bytes/s)
system.mem_ctrls0.bw_write::ruby.dir_cntrl0     67049432                       # Write bandwidth from this memory (bytes/s)
system.mem_ctrls0.bw_write::total            67049432                       # Write bandwidth from this memory (bytes/s)
system.mem_ctrls0.bw_total::ruby.dir_cntrl0    301850400                       # Total bandwidth to/from this memory (bytes/s)
system.mem_ctrls0.bw_total::total           301850400                       # Total bandwidth to/from this memory (bytes/s)
system.mem_ctrls0.readReqs                     219286                       # Number of read requests accepted
system.mem_ctrls0.writeReqs                     62619                       # Number of write requests accepted
system.mem_ctrls0.readBursts                   219286                       # Number of DRAM read bursts, including those serviced by the write queue
system.mem_ctrls0.writeBursts                   62619                       # Number of DRAM write bursts, including those merged in the write queue
system.mem_ctrls0.bytesReadDRAM              14032832                       # Total number of bytes read from DRAM
system.mem_ctrls0.bytesReadWrQ                   1472                       # Total number of bytes read from write queue
system.mem_ctrls0.bytesWritten                4007488                       # Total number of bytes written to DRAM
system.mem_ctrls0.bytesReadSys               14034304                       # Total read bytes from the system interface side
system.mem_ctrls0.bytesWrittenSys             4007616                       # Total written bytes from the system interface side
system.mem_ctrls0.servicedByWrQ                    23                       # Number of DRAM read bursts serviced by the write queue
system.mem_ctrls0.mergedWrBursts                    0                       # Number of DRAM write bursts merged with an existing one
system.mem_ctrls0.neitherReadNorWriteReqs            0                       # Number of requests that are neither read nor write
system.mem_ctrls0.perBankRdBursts::0            13462                       # Per bank write bursts
system.mem_ctrls0.perBankRdBursts::1            13998                       # Per bank write bursts
system.mem_ctrls0.perBankRdBursts::2            13664                       # Per bank write bursts
system.mem_ctrls0.perBankRdBursts::3            14063                       # Per bank write bursts
system.mem_ctrls0.perBankRdBursts::4            13702                       # Per bank write bursts
system.mem_ctrls0.perBankRdBursts::5            14283                       # Per bank write bursts
system.mem_ctrls0.perBankRdBursts::6            13741                       # Per bank write bursts
system.mem_ctrls0.perBankRdBursts::7            13669                       # Per bank write bursts
system.mem_ctrls0.perBankRdBursts::8            13562                       # Per bank write bursts
system.mem_ctrls0.perBankRdBursts::9            13898                       # Per bank write bursts
system.mem_ctrls0.perBankRdBursts::10           13605                       # Per bank write bursts
system.mem_ctrls0.perBankRdBursts::11           13838                       # Per bank write bursts
system.mem_ctrls0.perBankRdBursts::12           13385                       # Per bank write bursts
system.mem_ctrls0.perBankRdBursts::13           13264                       # Per bank write bursts
system.mem_ctrls0.perBankRdBursts::14           13559                       # Per bank write bursts
system.mem_ctrls0.perBankRdBursts::15           13570                       # Per bank write bursts
system.mem_ctrls0.perBankWrBursts::0             3845                       # Per bank write bursts
system.mem_ctrls0.perBankWrBursts::1             3927                       # Per bank write bursts
system.mem_ctrls0.perBankWrBursts::2             3906                       # Per bank write bursts
system.mem_ctrls0.perBankWrBursts::3             4132                       # Per bank write bursts
system.mem_ctrls0.perBankWrBursts::4             3927                       # Per bank write bursts
system.mem_ctrls0.perBankWrBursts::5             4076                       # Per bank write bursts
system.mem_ctrls0.perBankWrBursts::6             3983                       # Per bank write bursts
system.mem_ctrls0.perBankWrBursts::7             3947                       # Per bank write bursts
system.mem_ctrls0.perBankWrBursts::8             3818                       # Per bank write bursts
system.mem_ctrls0.perBankWrBursts::9             4072                       # Per bank write bursts
system.mem_ctrls0.perBankWrBursts::10            3841                       # Per bank write bursts
system.mem_ctrls0.perBankWrBursts::11            3777                       # Per bank write bursts
system.mem_ctrls0.perBankWrBursts::12            3724                       # Per bank write bursts
system.mem_ctrls0.perBankWrBursts::13            3760                       # Per bank write bursts
system.mem_ctrls0.perBankWrBursts::14            4009                       # Per bank write bursts
system.mem_ctrls0.perBankWrBursts::15            3873                       # Per bank write bursts
system.mem_ctrls0.numRdRetry                      458                       # Number of times read queue was full causing retry
system.mem_ctrls0.numWrRetry                      218                       # Number of times write queue was full causing retry
system.mem_ctrls0.totGap                  59770573500                       # Total gap between requests
system.mem_ctrls0.readPktSize::0                    0                       # Read request sizes (log2)
system.mem_ctrls0.readPktSize::1                    0                       # Read request sizes (log2)
system.mem_ctrls0.readPktSize::2                    0                       # Read request sizes (log2)
system.mem_ctrls0.readPktSize::3                    0                       # Read request sizes (log2)
system.mem_ctrls0.readPktSize::4                    0                       # Read request sizes (log2)
system.mem_ctrls0.readPktSize::5                    0                       # Read request sizes (log2)
system.mem_ctrls0.readPktSize::6               219286                       # Read request sizes (log2)
system.mem_ctrls0.writePktSize::0                   0                       # Write request sizes (log2)
system.mem_ctrls0.writePktSize::1                   0                       # Write request sizes (log2)
system.mem_ctrls0.writePktSize::2                   0                       # Write request sizes (log2)
system.mem_ctrls0.writePktSize::3                   0                       # Write request sizes (log2)
system.mem_ctrls0.writePktSize::4                   0                       # Write request sizes (log2)
system.mem_ctrls0.writePktSize::5                   0                       # Write request sizes (log2)
system.mem_ctrls0.writePktSize::6               62619                       # Write request sizes (log2)
system.mem_ctrls0.rdQLenPdf::0                 160145                       # What read queue length does an incoming req see
system.mem_ctrls0.rdQLenPdf::1                  42736                       # What read queue length does an incoming req see
system.mem_ctrls0.rdQLenPdf::2                  11593                       # What read queue length does an incoming req see
system.mem_ctrls0.rdQLenPdf::3                   2777                       # What read queue length does an incoming req see
system.mem_ctrls0.rdQLenPdf::4                    626                       # What read queue length does an incoming req see
system.mem_ctrls0.rdQLenPdf::5                    188                       # What read queue length does an incoming req see
system.mem_ctrls0.rdQLenPdf::6                     90                       # What read queue length does an incoming req see
system.mem_ctrls0.rdQLenPdf::7                     83                       # What read queue length does an incoming req see
system.mem_ctrls0.rdQLenPdf::8                     78                       # What read queue length does an incoming req see
system.mem_ctrls0.rdQLenPdf::9                     63                       # What read queue length does an incoming req see
system.mem_ctrls0.rdQLenPdf::10                    45                       # What read queue length does an incoming req see
system.mem_ctrls0.rdQLenPdf::11                    31                       # What read queue length does an incoming req see
system.mem_ctrls0.rdQLenPdf::12                    27                       # What read queue length does an incoming req see
system.mem_ctrls0.rdQLenPdf::13                    23                       # What read queue length does an incoming req see
system.mem_ctrls0.rdQLenPdf::14                    23                       # What read queue length does an incoming req see
system.mem_ctrls0.rdQLenPdf::15                    14                       # What read queue length does an incoming req see
system.mem_ctrls0.rdQLenPdf::16                    14                       # What read queue length does an incoming req see
system.mem_ctrls0.rdQLenPdf::17                    11                       # What read queue length does an incoming req see
system.mem_ctrls0.rdQLenPdf::18                     9                       # What read queue length does an incoming req see
system.mem_ctrls0.rdQLenPdf::19                     9                       # What read queue length does an incoming req see
system.mem_ctrls0.rdQLenPdf::20                    11                       # What read queue length does an incoming req see
system.mem_ctrls0.rdQLenPdf::21                     7                       # What read queue length does an incoming req see
system.mem_ctrls0.rdQLenPdf::22                     9                       # What read queue length does an incoming req see
system.mem_ctrls0.rdQLenPdf::23                     5                       # What read queue length does an incoming req see
system.mem_ctrls0.rdQLenPdf::24                     7                       # What read queue length does an incoming req see
system.mem_ctrls0.rdQLenPdf::25                    15                       # What read queue length does an incoming req see
system.mem_ctrls0.rdQLenPdf::26                    11                       # What read queue length does an incoming req see
system.mem_ctrls0.rdQLenPdf::27                    11                       # What read queue length does an incoming req see
system.mem_ctrls0.rdQLenPdf::28                    14                       # What read queue length does an incoming req see
system.mem_ctrls0.rdQLenPdf::29                    25                       # What read queue length does an incoming req see
system.mem_ctrls0.rdQLenPdf::30                    47                       # What read queue length does an incoming req see
system.mem_ctrls0.rdQLenPdf::31                   516                       # What read queue length does an incoming req see
system.mem_ctrls0.wrQLenPdf::0                  12248                       # What write queue length does an incoming req see
system.mem_ctrls0.wrQLenPdf::1                  12448                       # What write queue length does an incoming req see
system.mem_ctrls0.wrQLenPdf::2                  12421                       # What write queue length does an incoming req see
system.mem_ctrls0.wrQLenPdf::3                  12413                       # What write queue length does an incoming req see
system.mem_ctrls0.wrQLenPdf::4                  12362                       # What write queue length does an incoming req see
system.mem_ctrls0.wrQLenPdf::5                    226                       # What write queue length does an incoming req see
system.mem_ctrls0.wrQLenPdf::6                    141                       # What write queue length does an incoming req see
system.mem_ctrls0.wrQLenPdf::7                    360                       # What write queue length does an incoming req see
system.mem_ctrls0.bytesPerActivate::samples        86366                       # Bytes accessed per row activation
system.mem_ctrls0.bytesPerActivate::mean   208.875530                       # Bytes accessed per row activation
system.mem_ctrls0.bytesPerActivate::gmean   134.577121                       # Bytes accessed per row activation
system.mem_ctrls0.bytesPerActivate::stdev   238.107767                       # Bytes accessed per row activation
system.mem_ctrls0.bytesPerActivate::0-127        42443     49.14%     49.14% # Bytes accessed per row activation
system.mem_ctrls0.bytesPerActivate::128-255        17778     20.58%     69.73% # Bytes accessed per row activation
system.mem_ctrls0.bytesPerActivate::256-383        14937     17.30%     87.02% # Bytes accessed per row activation
system.mem_ctrls0.bytesPerActivate::384-511         2561      2.97%     89.99% # Bytes accessed per row activation
system.mem_ctrls0.bytesPerActivate::512-639         1798      2.08%     92.07% # Bytes accessed per row activation
system.mem_ctrls0.bytesPerActivate::640-767         1260      1.46%     93.53% # Bytes accessed per row activation
system.mem_ctrls0.bytesPerActivate::768-895         1119      1.30%     94.82% # Bytes accessed per row activation
system.mem_ctrls0.bytesPerActivate::896-1023          894      1.04%     95.86% # Bytes accessed per row activation
system.mem_ctrls0.bytesPerActivate::1024-1151         3576      4.14%    100.00% # Bytes accessed per row activation
system.mem_ctrls0.bytesPerActivate::total        86366                       # Bytes accessed per row activation
system.mem_ctrls0.rdPerTurnAround::samples        12275                       # Reads before turning the bus around for writes
system.mem_ctrls0.rdPerTurnAround::mean     17.705988                       # Reads before turning the bus around for writes
system.mem_ctrls0.rdPerTurnAround::stdev    76.036698                       # Reads before turning the bus around for writes
system.mem_ctrls0.rdPerTurnAround::0-127        11904     96.98%     96.98% # Reads before turning the bus around for writes
system.mem_ctrls0.rdPerTurnAround::128-255          190      1.55%     98.53% # Reads before turning the bus around for writes
system.mem_ctrls0.rdPerTurnAround::256-383           83      0.68%     99.20% # Reads before turning the bus around for writes
system.mem_ctrls0.rdPerTurnAround::384-511           55      0.45%     99.65% # Reads before turning the bus around for writes
system.mem_ctrls0.rdPerTurnAround::512-639           21      0.17%     99.82% # Reads before turning the bus around for writes
system.mem_ctrls0.rdPerTurnAround::640-767            8      0.07%     99.89% # Reads before turning the bus around for writes
system.mem_ctrls0.rdPerTurnAround::768-895            2      0.02%     99.90% # Reads before turning the bus around for writes
system.mem_ctrls0.rdPerTurnAround::896-1023            5      0.04%     99.94% # Reads before turning the bus around for writes
system.mem_ctrls0.rdPerTurnAround::1024-1151            1      0.01%     99.95% # Reads before turning the bus around for writes
system.mem_ctrls0.rdPerTurnAround::1152-1279            1      0.01%     99.96% # Reads before turning the bus around for writes
system.mem_ctrls0.rdPerTurnAround::1408-1535            1      0.01%     99.97% # Reads before turning the bus around for writes
system.mem_ctrls0.rdPerTurnAround::1664-1791            2      0.02%     99.98% # Reads before turning the bus around for writes
system.mem_ctrls0.rdPerTurnAround::1792-1919            1      0.01%     99.99% # Reads before turning the bus around for writes
system.mem_ctrls0.rdPerTurnAround::3968-4095            1      0.01%    100.00% # Reads before turning the bus around for writes
system.mem_ctrls0.rdPerTurnAround::total        12275                       # Reads before turning the bus around for writes
system.mem_ctrls0.wrPerTurnAround::samples        12275                       # Writes before turning the bus around for reads
system.mem_ctrls0.wrPerTurnAround::mean      5.101181                       # Writes before turning the bus around for reads
system.mem_ctrls0.wrPerTurnAround::gmean     5.072741                       # Writes before turning the bus around for reads
system.mem_ctrls0.wrPerTurnAround::stdev     0.755100                       # Writes before turning the bus around for reads
system.mem_ctrls0.wrPerTurnAround::4-7          12179     99.22%     99.22% # Writes before turning the bus around for reads
system.mem_ctrls0.wrPerTurnAround::8-11            43      0.35%     99.57% # Writes before turning the bus around for reads
system.mem_ctrls0.wrPerTurnAround::12-15           17      0.14%     99.71% # Writes before turning the bus around for reads
system.mem_ctrls0.wrPerTurnAround::16-19           36      0.29%    100.00% # Writes before turning the bus around for reads
system.mem_ctrls0.wrPerTurnAround::total        12275                       # Writes before turning the bus around for reads
system.mem_ctrls0.totQLat                  2964210860                       # Total ticks spent queuing
system.mem_ctrls0.totMemAccLat             7075392110                       # Total ticks spent from burst creation until serviced by the DRAM
system.mem_ctrls0.totBusLat                1096315000                       # Total ticks spent in databus transfers
system.mem_ctrls0.avgQLat                    13518.97                       # Average queueing delay per DRAM burst
system.mem_ctrls0.avgBusLat                   5000.00                       # Average bus latency per DRAM burst
system.mem_ctrls0.avgMemAccLat               32268.97                       # Average memory access latency per DRAM burst
system.mem_ctrls0.avgRdBW                      234.78                       # Average DRAM read bandwidth in MiByte/s
system.mem_ctrls0.avgWrBW                       67.05                       # Average achieved write bandwidth in MiByte/s
system.mem_ctrls0.avgRdBWSys                   234.80                       # Average system read bandwidth in MiByte/s
system.mem_ctrls0.avgWrBWSys                    67.05                       # Average system write bandwidth in MiByte/s
system.mem_ctrls0.peakBW                     12800.00                       # Theoretical peak bandwidth in MiByte/s
system.mem_ctrls0.busUtil                        2.36                       # Data bus utilization in percentage
system.mem_ctrls0.busUtilRead                    1.83                       # Data bus utilization in percentage for reads
system.mem_ctrls0.busUtilWrite                   0.52                       # Data bus utilization in percentage for writes
system.mem_ctrls0.avgRdQLen                      1.12                       # Average read queue length when enqueuing
system.mem_ctrls0.avgWrQLen                      2.85                       # Average write queue length when enqueuing
system.mem_ctrls0.readRowHits                  157212                       # Number of row buffer hits during reads
system.mem_ctrls0.writeRowHits                  38296                       # Number of row buffer hits during writes
system.mem_ctrls0.readRowHitRate                71.70                       # Row buffer hit rate for reads
system.mem_ctrls0.writeRowHitRate               61.16                       # Row buffer hit rate for writes
system.mem_ctrls0.avgGap                    212023.81                       # Average gap between requests
system.mem_ctrls0.pageHitRate                   69.36                       # Row buffer hit rate, read and write combined
system.mem_ctrls0.memoryStateTime::IDLE   10797137500                       # Time in different power states
system.mem_ctrls0.memoryStateTime::REF     1995760000                       # Time in different power states
system.mem_ctrls0.memoryStateTime::PRE_PDN            0                       # Time in different power states
system.mem_ctrls0.memoryStateTime::ACT    46975380000                       # Time in different power states
system.mem_ctrls0.memoryStateTime::ACT_PDN            0                       # Time in different power states
system.mem_ctrls0.actEnergy::0              330039360                       # Energy for activate commands per rank (pJ)
system.mem_ctrls0.actEnergy::1              322864920                       # Energy for activate commands per rank (pJ)
system.mem_ctrls0.preEnergy::0              180081000                       # Energy for precharge commands per rank (pJ)
system.mem_ctrls0.preEnergy::1              176166375                       # Energy for precharge commands per rank (pJ)
system.mem_ctrls0.readEnergy::0             862485000                       # Energy for read commands per rank (pJ)
system.mem_ctrls0.readEnergy::1             847665000                       # Energy for read commands per rank (pJ)
system.mem_ctrls0.writeEnergy::0            205694640                       # Energy for write commands per rank (pJ)
system.mem_ctrls0.writeEnergy::1            200063520                       # Energy for write commands per rank (pJ)
system.mem_ctrls0.refreshEnergy::0         3903706560                       # Energy for refresh commands per rank (pJ)
system.mem_ctrls0.refreshEnergy::1         3903706560                       # Energy for refresh commands per rank (pJ)
system.mem_ctrls0.actBackEnergy::0        25629984450                       # Energy for active background per rank (pJ)
system.mem_ctrls0.actBackEnergy::1        24950511675                       # Energy for active background per rank (pJ)
system.mem_ctrls0.preBackEnergy::0        13378066500                       # Energy for precharge background per rank (pJ)
system.mem_ctrls0.preBackEnergy::1        13974095250                       # Energy for precharge background per rank (pJ)
system.mem_ctrls0.totalEnergy::0          44490057510                       # Total energy per rank (pJ)
system.mem_ctrls0.totalEnergy::1          44375073300                       # Total energy per rank (pJ)
system.mem_ctrls0.averagePower::0          744.385265                       # Core power per rank (mW)
system.mem_ctrls0.averagePower::1          742.461407                       # Core power per rank (mW)
system.mem_ctrls1.bytes_read::ruby.dir_cntrl1     13851200                       # Number of bytes read from this memory
system.mem_ctrls1.bytes_read::total          13851200                       # Number of bytes read from this memory
system.mem_ctrls1.bytes_written::ruby.dir_cntrl1      3840704                       # Number of bytes written to this memory
system.mem_ctrls1.bytes_written::total        3840704                       # Number of bytes written to this memory
system.mem_ctrls1.num_reads::ruby.dir_cntrl1       216425                       # Number of read requests responded to by this memory
system.mem_ctrls1.num_reads::total             216425                       # Number of read requests responded to by this memory
system.mem_ctrls1.num_writes::ruby.dir_cntrl1        60011                       # Number of write requests responded to by this memory
system.mem_ctrls1.num_writes::total             60011                       # Number of write requests responded to by this memory
system.mem_ctrls1.bw_read::ruby.dir_cntrl1    231737545                       # Total read bandwidth from this memory (bytes/s)
system.mem_ctrls1.bw_read::total            231737545                       # Total read bandwidth from this memory (bytes/s)
system.mem_ctrls1.bw_write::ruby.dir_cntrl1     64256910                       # Write bandwidth from this memory (bytes/s)
system.mem_ctrls1.bw_write::total            64256910                       # Write bandwidth from this memory (bytes/s)
system.mem_ctrls1.bw_total::ruby.dir_cntrl1    295994456                       # Total bandwidth to/from this memory (bytes/s)
system.mem_ctrls1.bw_total::total           295994456                       # Total bandwidth to/from this memory (bytes/s)
system.mem_ctrls1.readReqs                     216425                       # Number of read requests accepted
system.mem_ctrls1.writeReqs                     60011                       # Number of write requests accepted
system.mem_ctrls1.readBursts                   216425                       # Number of DRAM read bursts, including those serviced by the write queue
system.mem_ctrls1.writeBursts                   60011                       # Number of DRAM write bursts, including those merged in the write queue
system.mem_ctrls1.bytesReadDRAM              13849600                       # Total number of bytes read from DRAM
system.mem_ctrls1.bytesReadWrQ                   1600                       # Total number of bytes read from write queue
system.mem_ctrls1.bytesWritten                3840512                       # Total number of bytes written to DRAM
system.mem_ctrls1.bytesReadSys               13851200                       # Total read bytes from the system interface side
system.mem_ctrls1.bytesWrittenSys             3840704                       # Total written bytes from the system interface side
system.mem_ctrls1.servicedByWrQ                    25                       # Number of DRAM read bursts serviced by the write queue
system.mem_ctrls1.mergedWrBursts                    0                       # Number of DRAM write bursts merged with an existing one
system.mem_ctrls1.neitherReadNorWriteReqs            0                       # Number of requests that are neither read nor write
system.mem_ctrls1.perBankRdBursts::0            13290                       # Per bank write bursts
system.mem_ctrls1.perBankRdBursts::1            13819                       # Per bank write bursts
system.mem_ctrls1.perBankRdBursts::2            13485                       # Per bank write bursts
system.mem_ctrls1.perBankRdBursts::3            13893                       # Per bank write bursts
system.mem_ctrls1.perBankRdBursts::4            13534                       # Per bank write bursts
system.mem_ctrls1.perBankRdBursts::5            14117                       # Per bank write bursts
system.mem_ctrls1.perBankRdBursts::6            13535                       # Per bank write bursts
system.mem_ctrls1.perBankRdBursts::7            13510                       # Per bank write bursts
system.mem_ctrls1.perBankRdBursts::8            13402                       # Per bank write bursts
system.mem_ctrls1.perBankRdBursts::9            13712                       # Per bank write bursts
system.mem_ctrls1.perBankRdBursts::10           13419                       # Per bank write bursts
system.mem_ctrls1.perBankRdBursts::11           13654                       # Per bank write bursts
system.mem_ctrls1.perBankRdBursts::12           13210                       # Per bank write bursts
system.mem_ctrls1.perBankRdBursts::13           13105                       # Per bank write bursts
system.mem_ctrls1.perBankRdBursts::14           13294                       # Per bank write bursts
system.mem_ctrls1.perBankRdBursts::15           13421                       # Per bank write bursts
system.mem_ctrls1.perBankWrBursts::0             3686                       # Per bank write bursts
system.mem_ctrls1.perBankWrBursts::1             3780                       # Per bank write bursts
system.mem_ctrls1.perBankWrBursts::2             3765                       # Per bank write bursts
system.mem_ctrls1.perBankWrBursts::3             3979                       # Per bank write bursts
system.mem_ctrls1.perBankWrBursts::4             3771                       # Per bank write bursts
system.mem_ctrls1.perBankWrBursts::5             3924                       # Per bank write bursts
system.mem_ctrls1.perBankWrBursts::6             3803                       # Per bank write bursts
system.mem_ctrls1.perBankWrBursts::7             3779                       # Per bank write bursts
system.mem_ctrls1.perBankWrBursts::8             3663                       # Per bank write bursts
system.mem_ctrls1.perBankWrBursts::9             3898                       # Per bank write bursts
system.mem_ctrls1.perBankWrBursts::10            3678                       # Per bank write bursts
system.mem_ctrls1.perBankWrBursts::11            3611                       # Per bank write bursts
system.mem_ctrls1.perBankWrBursts::12            3566                       # Per bank write bursts
system.mem_ctrls1.perBankWrBursts::13            3595                       # Per bank write bursts
system.mem_ctrls1.perBankWrBursts::14            3794                       # Per bank write bursts
system.mem_ctrls1.perBankWrBursts::15            3716                       # Per bank write bursts
system.mem_ctrls1.numRdRetry                      167                       # Number of times read queue was full causing retry
system.mem_ctrls1.numWrRetry                      166                       # Number of times write queue was full causing retry
system.mem_ctrls1.totGap                  59770315000                       # Total gap between requests
system.mem_ctrls1.readPktSize::0                    0                       # Read request sizes (log2)
system.mem_ctrls1.readPktSize::1                    0                       # Read request sizes (log2)
system.mem_ctrls1.readPktSize::2                    0                       # Read request sizes (log2)
system.mem_ctrls1.readPktSize::3                    0                       # Read request sizes (log2)
system.mem_ctrls1.readPktSize::4                    0                       # Read request sizes (log2)
system.mem_ctrls1.readPktSize::5                    0                       # Read request sizes (log2)
system.mem_ctrls1.readPktSize::6               216425                       # Read request sizes (log2)
system.mem_ctrls1.writePktSize::0                   0                       # Write request sizes (log2)
system.mem_ctrls1.writePktSize::1                   0                       # Write request sizes (log2)
system.mem_ctrls1.writePktSize::2                   0                       # Write request sizes (log2)
system.mem_ctrls1.writePktSize::3                   0                       # Write request sizes (log2)
system.mem_ctrls1.writePktSize::4                   0                       # Write request sizes (log2)
system.mem_ctrls1.writePktSize::5                   0                       # Write request sizes (log2)
system.mem_ctrls1.writePktSize::6               60011                       # Write request sizes (log2)
system.mem_ctrls1.rdQLenPdf::0                 157990                       # What read queue length does an incoming req see
system.mem_ctrls1.rdQLenPdf::1                  42991                       # What read queue length does an incoming req see
system.mem_ctrls1.rdQLenPdf::2                  11159                       # What read queue length does an incoming req see
system.mem_ctrls1.rdQLenPdf::3                   2489                       # What read queue length does an incoming req see
system.mem_ctrls1.rdQLenPdf::4                    568                       # What read queue length does an incoming req see
system.mem_ctrls1.rdQLenPdf::5                    190                       # What read queue length does an incoming req see
system.mem_ctrls1.rdQLenPdf::6                    112                       # What read queue length does an incoming req see
system.mem_ctrls1.rdQLenPdf::7                     77                       # What read queue length does an incoming req see
system.mem_ctrls1.rdQLenPdf::8                     57                       # What read queue length does an incoming req see
system.mem_ctrls1.rdQLenPdf::9                     46                       # What read queue length does an incoming req see
system.mem_ctrls1.rdQLenPdf::10                    27                       # What read queue length does an incoming req see
system.mem_ctrls1.rdQLenPdf::11                    25                       # What read queue length does an incoming req see
system.mem_ctrls1.rdQLenPdf::12                    31                       # What read queue length does an incoming req see
system.mem_ctrls1.rdQLenPdf::13                    31                       # What read queue length does an incoming req see
system.mem_ctrls1.rdQLenPdf::14                    29                       # What read queue length does an incoming req see
system.mem_ctrls1.rdQLenPdf::15                    14                       # What read queue length does an incoming req see
system.mem_ctrls1.rdQLenPdf::16                    16                       # What read queue length does an incoming req see
system.mem_ctrls1.rdQLenPdf::17                    13                       # What read queue length does an incoming req see
system.mem_ctrls1.rdQLenPdf::18                    24                       # What read queue length does an incoming req see
system.mem_ctrls1.rdQLenPdf::19                    24                       # What read queue length does an incoming req see
system.mem_ctrls1.rdQLenPdf::20                    27                       # What read queue length does an incoming req see
system.mem_ctrls1.rdQLenPdf::21                    37                       # What read queue length does an incoming req see
system.mem_ctrls1.rdQLenPdf::22                    30                       # What read queue length does an incoming req see
system.mem_ctrls1.rdQLenPdf::23                    21                       # What read queue length does an incoming req see
system.mem_ctrls1.rdQLenPdf::24                    21                       # What read queue length does an incoming req see
system.mem_ctrls1.rdQLenPdf::25                    29                       # What read queue length does an incoming req see
system.mem_ctrls1.rdQLenPdf::26                    27                       # What read queue length does an incoming req see
system.mem_ctrls1.rdQLenPdf::27                    29                       # What read queue length does an incoming req see
system.mem_ctrls1.rdQLenPdf::28                    23                       # What read queue length does an incoming req see
system.mem_ctrls1.rdQLenPdf::29                    23                       # What read queue length does an incoming req see
system.mem_ctrls1.rdQLenPdf::30                    21                       # What read queue length does an incoming req see
system.mem_ctrls1.rdQLenPdf::31                   199                       # What read queue length does an incoming req see
system.mem_ctrls1.wrQLenPdf::0                  11746                       # What write queue length does an incoming req see
system.mem_ctrls1.wrQLenPdf::1                  11937                       # What write queue length does an incoming req see
system.mem_ctrls1.wrQLenPdf::2                  11931                       # What write queue length does an incoming req see
system.mem_ctrls1.wrQLenPdf::3                  11885                       # What write queue length does an incoming req see
system.mem_ctrls1.wrQLenPdf::4                  11888                       # What write queue length does an incoming req see
system.mem_ctrls1.wrQLenPdf::5                    210                       # What write queue length does an incoming req see
system.mem_ctrls1.wrQLenPdf::6                    149                       # What write queue length does an incoming req see
system.mem_ctrls1.wrQLenPdf::7                    265                       # What write queue length does an incoming req see
system.mem_ctrls1.bytesPerActivate::samples        81872                       # Bytes accessed per row activation
system.mem_ctrls1.bytesPerActivate::mean   216.059410                       # Bytes accessed per row activation
system.mem_ctrls1.bytesPerActivate::gmean   138.406492                       # Bytes accessed per row activation
system.mem_ctrls1.bytesPerActivate::stdev   244.222153                       # Bytes accessed per row activation
system.mem_ctrls1.bytesPerActivate::0-127        38985     47.62%     47.62% # Bytes accessed per row activation
system.mem_ctrls1.bytesPerActivate::128-255        17060     20.84%     68.45% # Bytes accessed per row activation
system.mem_ctrls1.bytesPerActivate::256-383        14515     17.73%     86.18% # Bytes accessed per row activation
system.mem_ctrls1.bytesPerActivate::384-511         2498      3.05%     89.23% # Bytes accessed per row activation
system.mem_ctrls1.bytesPerActivate::512-639         1843      2.25%     91.49% # Bytes accessed per row activation
system.mem_ctrls1.bytesPerActivate::640-767         1325      1.62%     93.10% # Bytes accessed per row activation
system.mem_ctrls1.bytesPerActivate::768-895         1094      1.34%     94.44% # Bytes accessed per row activation
system.mem_ctrls1.bytesPerActivate::896-1023          911      1.11%     95.55% # Bytes accessed per row activation
system.mem_ctrls1.bytesPerActivate::1024-1151         3641      4.45%    100.00% # Bytes accessed per row activation
system.mem_ctrls1.bytesPerActivate::total        81872                       # Bytes accessed per row activation
system.mem_ctrls1.rdPerTurnAround::samples        11768                       # Reads before turning the bus around for writes
system.mem_ctrls1.rdPerTurnAround::mean     18.225272                       # Reads before turning the bus around for writes
system.mem_ctrls1.rdPerTurnAround::stdev    77.381210                       # Reads before turning the bus around for writes
system.mem_ctrls1.rdPerTurnAround::0-127        11413     96.98%     96.98% # Reads before turning the bus around for writes
system.mem_ctrls1.rdPerTurnAround::128-255          164      1.39%     98.38% # Reads before turning the bus around for writes
system.mem_ctrls1.rdPerTurnAround::256-383           89      0.76%     99.13% # Reads before turning the bus around for writes
system.mem_ctrls1.rdPerTurnAround::384-511           55      0.47%     99.60% # Reads before turning the bus around for writes
system.mem_ctrls1.rdPerTurnAround::512-639           22      0.19%     99.79% # Reads before turning the bus around for writes
system.mem_ctrls1.rdPerTurnAround::640-767           12      0.10%     99.89% # Reads before turning the bus around for writes
system.mem_ctrls1.rdPerTurnAround::768-895            1      0.01%     99.90% # Reads before turning the bus around for writes
system.mem_ctrls1.rdPerTurnAround::896-1023            4      0.03%     99.93% # Reads before turning the bus around for writes
system.mem_ctrls1.rdPerTurnAround::1152-1279            1      0.01%     99.94% # Reads before turning the bus around for writes
system.mem_ctrls1.rdPerTurnAround::1536-1663            1      0.01%     99.95% # Reads before turning the bus around for writes
system.mem_ctrls1.rdPerTurnAround::1664-1791            1      0.01%     99.96% # Reads before turning the bus around for writes
system.mem_ctrls1.rdPerTurnAround::1792-1919            3      0.03%     99.98% # Reads before turning the bus around for writes
system.mem_ctrls1.rdPerTurnAround::1920-2047            1      0.01%     99.99% # Reads before turning the bus around for writes
system.mem_ctrls1.rdPerTurnAround::2816-2943            1      0.01%    100.00% # Reads before turning the bus around for writes
system.mem_ctrls1.rdPerTurnAround::total        11768                       # Reads before turning the bus around for writes
system.mem_ctrls1.wrPerTurnAround::samples        11768                       # Writes before turning the bus around for reads
system.mem_ctrls1.wrPerTurnAround::mean      5.099252                       # Writes before turning the bus around for reads
system.mem_ctrls1.wrPerTurnAround::gmean     5.072508                       # Writes before turning the bus around for reads
system.mem_ctrls1.wrPerTurnAround::stdev     0.720476                       # Writes before turning the bus around for reads
system.mem_ctrls1.wrPerTurnAround::4-7          11663     99.11%     99.11% # Writes before turning the bus around for reads
system.mem_ctrls1.wrPerTurnAround::8-11            56      0.48%     99.58% # Writes before turning the bus around for reads
system.mem_ctrls1.wrPerTurnAround::12-15           22      0.19%     99.77% # Writes before turning the bus around for reads
system.mem_ctrls1.wrPerTurnAround::16-19           27      0.23%    100.00% # Writes before turning the bus around for reads
system.mem_ctrls1.wrPerTurnAround::total        11768                       # Writes before turning the bus around for reads
system.mem_ctrls1.totQLat                  2773225124                       # Total ticks spent queuing
system.mem_ctrls1.totMemAccLat             6830725124                       # Total ticks spent from burst creation until serviced by the DRAM
system.mem_ctrls1.totBusLat                1082000000                       # Total ticks spent in databus transfers
system.mem_ctrls1.avgQLat                    12815.27                       # Average queueing delay per DRAM burst
system.mem_ctrls1.avgBusLat                   5000.00                       # Average bus latency per DRAM burst
system.mem_ctrls1.avgMemAccLat               31565.27                       # Average memory access latency per DRAM burst
system.mem_ctrls1.avgRdBW                      231.71                       # Average DRAM read bandwidth in MiByte/s
system.mem_ctrls1.avgWrBW                       64.25                       # Average achieved write bandwidth in MiByte/s
system.mem_ctrls1.avgRdBWSys                   231.74                       # Average system read bandwidth in MiByte/s
system.mem_ctrls1.avgWrBWSys                    64.26                       # Average system write bandwidth in MiByte/s
system.mem_ctrls1.peakBW                     12800.00                       # Theoretical peak bandwidth in MiByte/s
system.mem_ctrls1.busUtil                        2.31                       # Data bus utilization in percentage
system.mem_ctrls1.busUtilRead                    1.81                       # Data bus utilization in percentage for reads
system.mem_ctrls1.busUtilWrite                   0.50                       # Data bus utilization in percentage for writes
system.mem_ctrls1.avgRdQLen                      1.10                       # Average read queue length when enqueuing
system.mem_ctrls1.avgWrQLen                      2.91                       # Average write queue length when enqueuing
system.mem_ctrls1.readRowHits                  155934                       # Number of row buffer hits during reads
system.mem_ctrls1.writeRowHits                  38596                       # Number of row buffer hits during writes
system.mem_ctrls1.readRowHitRate                72.06                       # Row buffer hit rate for reads
system.mem_ctrls1.writeRowHitRate               64.31                       # Row buffer hit rate for writes
system.mem_ctrls1.avgGap                    216217.55                       # Average gap between requests
system.mem_ctrls1.pageHitRate                   70.38                       # Row buffer hit rate, read and write combined
system.mem_ctrls1.memoryStateTime::IDLE   11227630500                       # Time in different power states
system.mem_ctrls1.memoryStateTime::REF     1995760000                       # Time in different power states
system.mem_ctrls1.memoryStateTime::PRE_PDN            0                       # Time in different power states
system.mem_ctrls1.memoryStateTime::ACT    46544607500                       # Time in different power states
system.mem_ctrls1.memoryStateTime::ACT_PDN            0                       # Time in different power states
system.mem_ctrls1.actEnergy::0              313951680                       # Energy for activate commands per rank (pJ)
system.mem_ctrls1.actEnergy::1              305000640                       # Energy for activate commands per rank (pJ)
system.mem_ctrls1.preEnergy::0              171303000                       # Energy for precharge commands per rank (pJ)
system.mem_ctrls1.preEnergy::1              166419000                       # Energy for precharge commands per rank (pJ)
system.mem_ctrls1.readEnergy::0             851557200                       # Energy for read commands per rank (pJ)
system.mem_ctrls1.readEnergy::1             836253600                       # Energy for read commands per rank (pJ)
system.mem_ctrls1.writeEnergy::0            197555760                       # Energy for write commands per rank (pJ)
system.mem_ctrls1.writeEnergy::1            191296080                       # Energy for write commands per rank (pJ)
system.mem_ctrls1.refreshEnergy::0         3903706560                       # Energy for refresh commands per rank (pJ)
system.mem_ctrls1.refreshEnergy::1         3903706560                       # Energy for refresh commands per rank (pJ)
system.mem_ctrls1.actBackEnergy::0        25327423035                       # Energy for active background per rank (pJ)
system.mem_ctrls1.actBackEnergy::1        24378755220                       # Energy for active background per rank (pJ)
system.mem_ctrls1.preBackEnergy::0        13643471250                       # Energy for precharge background per rank (pJ)
system.mem_ctrls1.preBackEnergy::1        14475636000                       # Energy for precharge background per rank (pJ)
system.mem_ctrls1.totalEnergy::0          44408968485                       # Total energy per rank (pJ)
system.mem_ctrls1.totalEnergy::1          44257067100                       # Total energy per rank (pJ)
system.mem_ctrls1.averagePower::0          743.028525                       # Core power per rank (mW)
system.mem_ctrls1.averagePower::1          740.486987                       # Core power per rank (mW)
system.mem_ctrls2.bytes_read::ruby.dir_cntrl2     13851840                       # Number of bytes read from this memory
system.mem_ctrls2.bytes_read::total          13851840                       # Number of bytes read from this memory
system.mem_ctrls2.bytes_written::ruby.dir_cntrl2      3841920                       # Number of bytes written to this memory
system.mem_ctrls2.bytes_written::total        3841920                       # Number of bytes written to this memory
system.mem_ctrls2.num_reads::ruby.dir_cntrl2       216435                       # Number of read requests responded to by this memory
system.mem_ctrls2.num_reads::total             216435                       # Number of read requests responded to by this memory
system.mem_ctrls2.num_writes::ruby.dir_cntrl2        60030                       # Number of write requests responded to by this memory
system.mem_ctrls2.num_writes::total             60030                       # Number of write requests responded to by this memory
system.mem_ctrls2.bw_read::ruby.dir_cntrl2    231748253                       # Total read bandwidth from this memory (bytes/s)
system.mem_ctrls2.bw_read::total            231748253                       # Total read bandwidth from this memory (bytes/s)
system.mem_ctrls2.bw_write::ruby.dir_cntrl2     64277255                       # Write bandwidth from this memory (bytes/s)
system.mem_ctrls2.bw_write::total            64277255                       # Write bandwidth from this memory (bytes/s)
system.mem_ctrls2.bw_total::ruby.dir_cntrl2    296025508                       # Total bandwidth to/from this memory (bytes/s)
system.mem_ctrls2.bw_total::total           296025508                       # Total bandwidth to/from this memory (bytes/s)
system.mem_ctrls2.readReqs                     216435                       # Number of read requests accepted
system.mem_ctrls2.writeReqs                     60030                       # Number of write requests accepted
system.mem_ctrls2.readBursts                   216435                       # Number of DRAM read bursts, including those serviced by the write queue
system.mem_ctrls2.writeBursts                   60030                       # Number of DRAM write bursts, including those merged in the write queue
system.mem_ctrls2.bytesReadDRAM              13851072                       # Total number of bytes read from DRAM
system.mem_ctrls2.bytesReadWrQ                    768                       # Total number of bytes read from write queue
system.mem_ctrls2.bytesWritten                3841664                       # Total number of bytes written to DRAM
system.mem_ctrls2.bytesReadSys               13851840                       # Total read bytes from the system interface side
system.mem_ctrls2.bytesWrittenSys             3841920                       # Total written bytes from the system interface side
system.mem_ctrls2.servicedByWrQ                    12                       # Number of DRAM read bursts serviced by the write queue
system.mem_ctrls2.mergedWrBursts                    0                       # Number of DRAM write bursts merged with an existing one
system.mem_ctrls2.neitherReadNorWriteReqs            0                       # Number of requests that are neither read nor write
system.mem_ctrls2.perBankRdBursts::0            13292                       # Per bank write bursts
system.mem_ctrls2.perBankRdBursts::1            13833                       # Per bank write bursts
system.mem_ctrls2.perBankRdBursts::2            13508                       # Per bank write bursts
system.mem_ctrls2.perBankRdBursts::3            13918                       # Per bank write bursts
system.mem_ctrls2.perBankRdBursts::4            13547                       # Per bank write bursts
system.mem_ctrls2.perBankRdBursts::5            14107                       # Per bank write bursts
system.mem_ctrls2.perBankRdBursts::6            13493                       # Per bank write bursts
system.mem_ctrls2.perBankRdBursts::7            13499                       # Per bank write bursts
system.mem_ctrls2.perBankRdBursts::8            13395                       # Per bank write bursts
system.mem_ctrls2.perBankRdBursts::9            13711                       # Per bank write bursts
system.mem_ctrls2.perBankRdBursts::10           13426                       # Per bank write bursts
system.mem_ctrls2.perBankRdBursts::11           13701                       # Per bank write bursts
system.mem_ctrls2.perBankRdBursts::12           13205                       # Per bank write bursts
system.mem_ctrls2.perBankRdBursts::13           13068                       # Per bank write bursts
system.mem_ctrls2.perBankRdBursts::14           13299                       # Per bank write bursts
system.mem_ctrls2.perBankRdBursts::15           13421                       # Per bank write bursts
system.mem_ctrls2.perBankWrBursts::0             3679                       # Per bank write bursts
system.mem_ctrls2.perBankWrBursts::1             3777                       # Per bank write bursts
system.mem_ctrls2.perBankWrBursts::2             3762                       # Per bank write bursts
system.mem_ctrls2.perBankWrBursts::3             3992                       # Per bank write bursts
system.mem_ctrls2.perBankWrBursts::4             3770                       # Per bank write bursts
system.mem_ctrls2.perBankWrBursts::5             3914                       # Per bank write bursts
system.mem_ctrls2.perBankWrBursts::6             3812                       # Per bank write bursts
system.mem_ctrls2.perBankWrBursts::7             3786                       # Per bank write bursts
system.mem_ctrls2.perBankWrBursts::8             3665                       # Per bank write bursts
system.mem_ctrls2.perBankWrBursts::9             3906                       # Per bank write bursts
system.mem_ctrls2.perBankWrBursts::10            3673                       # Per bank write bursts
system.mem_ctrls2.perBankWrBursts::11            3608                       # Per bank write bursts
system.mem_ctrls2.perBankWrBursts::12            3575                       # Per bank write bursts
system.mem_ctrls2.perBankWrBursts::13            3589                       # Per bank write bursts
system.mem_ctrls2.perBankWrBursts::14            3799                       # Per bank write bursts
system.mem_ctrls2.perBankWrBursts::15            3719                       # Per bank write bursts
system.mem_ctrls2.numRdRetry                      206                       # Number of times read queue was full causing retry
system.mem_ctrls2.numWrRetry                      216                       # Number of times write queue was full causing retry
system.mem_ctrls2.totGap                  59770361500                       # Total gap between requests
system.mem_ctrls2.readPktSize::0                    0                       # Read request sizes (log2)
system.mem_ctrls2.readPktSize::1                    0                       # Read request sizes (log2)
system.mem_ctrls2.readPktSize::2                    0                       # Read request sizes (log2)
system.mem_ctrls2.readPktSize::3                    0                       # Read request sizes (log2)
system.mem_ctrls2.readPktSize::4                    0                       # Read request sizes (log2)
system.mem_ctrls2.readPktSize::5                    0                       # Read request sizes (log2)
system.mem_ctrls2.readPktSize::6               216435                       # Read request sizes (log2)
system.mem_ctrls2.writePktSize::0                   0                       # Write request sizes (log2)
system.mem_ctrls2.writePktSize::1                   0                       # Write request sizes (log2)
system.mem_ctrls2.writePktSize::2                   0                       # Write request sizes (log2)
system.mem_ctrls2.writePktSize::3                   0                       # Write request sizes (log2)
system.mem_ctrls2.writePktSize::4                   0                       # Write request sizes (log2)
system.mem_ctrls2.writePktSize::5                   0                       # Write request sizes (log2)
system.mem_ctrls2.writePktSize::6               60030                       # Write request sizes (log2)
system.mem_ctrls2.rdQLenPdf::0                 158495                       # What read queue length does an incoming req see
system.mem_ctrls2.rdQLenPdf::1                  42577                       # What read queue length does an incoming req see
system.mem_ctrls2.rdQLenPdf::2                  11028                       # What read queue length does an incoming req see
system.mem_ctrls2.rdQLenPdf::3                   2542                       # What read queue length does an incoming req see
system.mem_ctrls2.rdQLenPdf::4                    586                       # What read queue length does an incoming req see
system.mem_ctrls2.rdQLenPdf::5                    183                       # What read queue length does an incoming req see
system.mem_ctrls2.rdQLenPdf::6                     95                       # What read queue length does an incoming req see
system.mem_ctrls2.rdQLenPdf::7                     88                       # What read queue length does an incoming req see
system.mem_ctrls2.rdQLenPdf::8                     69                       # What read queue length does an incoming req see
system.mem_ctrls2.rdQLenPdf::9                     67                       # What read queue length does an incoming req see
system.mem_ctrls2.rdQLenPdf::10                    50                       # What read queue length does an incoming req see
system.mem_ctrls2.rdQLenPdf::11                    47                       # What read queue length does an incoming req see
system.mem_ctrls2.rdQLenPdf::12                    45                       # What read queue length does an incoming req see
system.mem_ctrls2.rdQLenPdf::13                    37                       # What read queue length does an incoming req see
system.mem_ctrls2.rdQLenPdf::14                    25                       # What read queue length does an incoming req see
system.mem_ctrls2.rdQLenPdf::15                    23                       # What read queue length does an incoming req see
system.mem_ctrls2.rdQLenPdf::16                    22                       # What read queue length does an incoming req see
system.mem_ctrls2.rdQLenPdf::17                    23                       # What read queue length does an incoming req see
system.mem_ctrls2.rdQLenPdf::18                    15                       # What read queue length does an incoming req see
system.mem_ctrls2.rdQLenPdf::19                    13                       # What read queue length does an incoming req see
system.mem_ctrls2.rdQLenPdf::20                    16                       # What read queue length does an incoming req see
system.mem_ctrls2.rdQLenPdf::21                    16                       # What read queue length does an incoming req see
system.mem_ctrls2.rdQLenPdf::22                    15                       # What read queue length does an incoming req see
system.mem_ctrls2.rdQLenPdf::23                    13                       # What read queue length does an incoming req see
system.mem_ctrls2.rdQLenPdf::24                    14                       # What read queue length does an incoming req see
system.mem_ctrls2.rdQLenPdf::25                    10                       # What read queue length does an incoming req see
system.mem_ctrls2.rdQLenPdf::26                    15                       # What read queue length does an incoming req see
system.mem_ctrls2.rdQLenPdf::27                    11                       # What read queue length does an incoming req see
system.mem_ctrls2.rdQLenPdf::28                    14                       # What read queue length does an incoming req see
system.mem_ctrls2.rdQLenPdf::29                    12                       # What read queue length does an incoming req see
system.mem_ctrls2.rdQLenPdf::30                    14                       # What read queue length does an incoming req see
system.mem_ctrls2.rdQLenPdf::31                   243                       # What read queue length does an incoming req see
system.mem_ctrls2.wrQLenPdf::0                  11751                       # What write queue length does an incoming req see
system.mem_ctrls2.wrQLenPdf::1                  11933                       # What write queue length does an incoming req see
system.mem_ctrls2.wrQLenPdf::2                  11926                       # What write queue length does an incoming req see
system.mem_ctrls2.wrQLenPdf::3                  11905                       # What write queue length does an incoming req see
system.mem_ctrls2.wrQLenPdf::4                  11880                       # What write queue length does an incoming req see
system.mem_ctrls2.wrQLenPdf::5                    199                       # What write queue length does an incoming req see
system.mem_ctrls2.wrQLenPdf::6                    121                       # What write queue length does an incoming req see
system.mem_ctrls2.wrQLenPdf::7                    315                       # What write queue length does an incoming req see
system.mem_ctrls2.bytesPerActivate::samples        81882                       # Bytes accessed per row activation
system.mem_ctrls2.bytesPerActivate::mean   216.066632                       # Bytes accessed per row activation
system.mem_ctrls2.bytesPerActivate::gmean   138.304754                       # Bytes accessed per row activation
system.mem_ctrls2.bytesPerActivate::stdev   244.210787                       # Bytes accessed per row activation
system.mem_ctrls2.bytesPerActivate::0-127        39180     47.85%     47.85% # Bytes accessed per row activation
system.mem_ctrls2.bytesPerActivate::128-255        16671     20.36%     68.21% # Bytes accessed per row activation
system.mem_ctrls2.bytesPerActivate::256-383        14601     17.83%     86.04% # Bytes accessed per row activation
system.mem_ctrls2.bytesPerActivate::384-511         2610      3.19%     89.23% # Bytes accessed per row activation
system.mem_ctrls2.bytesPerActivate::512-639         1871      2.28%     91.51% # Bytes accessed per row activation
system.mem_ctrls2.bytesPerActivate::640-767         1310      1.60%     93.11% # Bytes accessed per row activation
system.mem_ctrls2.bytesPerActivate::768-895         1077      1.32%     94.43% # Bytes accessed per row activation
system.mem_ctrls2.bytesPerActivate::896-1023          921      1.12%     95.55% # Bytes accessed per row activation
system.mem_ctrls2.bytesPerActivate::1024-1151         3641      4.45%    100.00% # Bytes accessed per row activation
system.mem_ctrls2.bytesPerActivate::total        81882                       # Bytes accessed per row activation
system.mem_ctrls2.rdPerTurnAround::samples        11774                       # Reads before turning the bus around for writes
system.mem_ctrls2.rdPerTurnAround::mean     18.217173                       # Reads before turning the bus around for writes
system.mem_ctrls2.rdPerTurnAround::stdev    76.359161                       # Reads before turning the bus around for writes
system.mem_ctrls2.rdPerTurnAround::0-127        11415     96.95%     96.95% # Reads before turning the bus around for writes
system.mem_ctrls2.rdPerTurnAround::128-255          175      1.49%     98.44% # Reads before turning the bus around for writes
system.mem_ctrls2.rdPerTurnAround::256-383           83      0.70%     99.14% # Reads before turning the bus around for writes
system.mem_ctrls2.rdPerTurnAround::384-511           51      0.43%     99.58% # Reads before turning the bus around for writes
system.mem_ctrls2.rdPerTurnAround::512-639           26      0.22%     99.80% # Reads before turning the bus around for writes
system.mem_ctrls2.rdPerTurnAround::640-767           10      0.08%     99.88% # Reads before turning the bus around for writes
system.mem_ctrls2.rdPerTurnAround::896-1023            5      0.04%     99.92% # Reads before turning the bus around for writes
system.mem_ctrls2.rdPerTurnAround::1024-1151            1      0.01%     99.93% # Reads before turning the bus around for writes
system.mem_ctrls2.rdPerTurnAround::1152-1279            2      0.02%     99.95% # Reads before turning the bus around for writes
system.mem_ctrls2.rdPerTurnAround::1280-1407            1      0.01%     99.96% # Reads before turning the bus around for writes
system.mem_ctrls2.rdPerTurnAround::1536-1663            1      0.01%     99.97% # Reads before turning the bus around for writes
system.mem_ctrls2.rdPerTurnAround::1792-1919            2      0.02%     99.98% # Reads before turning the bus around for writes
system.mem_ctrls2.rdPerTurnAround::1920-2047            1      0.01%     99.99% # Reads before turning the bus around for writes
system.mem_ctrls2.rdPerTurnAround::2816-2943            1      0.01%    100.00% # Reads before turning the bus around for writes
system.mem_ctrls2.rdPerTurnAround::total        11774                       # Reads before turning the bus around for writes
system.mem_ctrls2.wrPerTurnAround::samples        11774                       # Writes before turning the bus around for reads
system.mem_ctrls2.wrPerTurnAround::mean      5.098182                       # Writes before turning the bus around for reads
system.mem_ctrls2.wrPerTurnAround::gmean     5.070376                       # Writes before turning the bus around for reads
system.mem_ctrls2.wrPerTurnAround::stdev     0.743984                       # Writes before turning the bus around for reads
system.mem_ctrls2.wrPerTurnAround::4-7          11673     99.14%     99.14% # Writes before turning the bus around for reads
system.mem_ctrls2.wrPerTurnAround::8-11            51      0.43%     99.58% # Writes before turning the bus around for reads
system.mem_ctrls2.wrPerTurnAround::12-15           18      0.15%     99.73% # Writes before turning the bus around for reads
system.mem_ctrls2.wrPerTurnAround::16-19           32      0.27%    100.00% # Writes before turning the bus around for reads
system.mem_ctrls2.wrPerTurnAround::total        11774                       # Writes before turning the bus around for reads
system.mem_ctrls2.totQLat                  2759892070                       # Total ticks spent queuing
system.mem_ctrls2.totMemAccLat             6817823320                       # Total ticks spent from burst creation until serviced by the DRAM
system.mem_ctrls2.totBusLat                1082115000                       # Total ticks spent in databus transfers
system.mem_ctrls2.avgQLat                    12752.30                       # Average queueing delay per DRAM burst
system.mem_ctrls2.avgBusLat                   5000.00                       # Average bus latency per DRAM burst
system.mem_ctrls2.avgMemAccLat               31502.30                       # Average memory access latency per DRAM burst
system.mem_ctrls2.avgRdBW                      231.74                       # Average DRAM read bandwidth in MiByte/s
system.mem_ctrls2.avgWrBW                       64.27                       # Average achieved write bandwidth in MiByte/s
system.mem_ctrls2.avgRdBWSys                   231.75                       # Average system read bandwidth in MiByte/s
system.mem_ctrls2.avgWrBWSys                    64.28                       # Average system write bandwidth in MiByte/s
system.mem_ctrls2.peakBW                     12800.00                       # Theoretical peak bandwidth in MiByte/s
system.mem_ctrls2.busUtil                        2.31                       # Data bus utilization in percentage
system.mem_ctrls2.busUtilRead                    1.81                       # Data bus utilization in percentage for reads
system.mem_ctrls2.busUtilWrite                   0.50                       # Data bus utilization in percentage for writes
system.mem_ctrls2.avgRdQLen                      1.10                       # Average read queue length when enqueuing
system.mem_ctrls2.avgWrQLen                      2.99                       # Average write queue length when enqueuing
system.mem_ctrls2.readRowHits                  155956                       # Number of row buffer hits during reads
system.mem_ctrls2.writeRowHits                  38604                       # Number of row buffer hits during writes
system.mem_ctrls2.readRowHitRate                72.06                       # Row buffer hit rate for reads
system.mem_ctrls2.writeRowHitRate               64.31                       # Row buffer hit rate for writes
system.mem_ctrls2.avgGap                    216195.04                       # Average gap between requests
system.mem_ctrls2.pageHitRate                   70.38                       # Row buffer hit rate, read and write combined
system.mem_ctrls2.memoryStateTime::IDLE   11128335250                       # Time in different power states
system.mem_ctrls2.memoryStateTime::REF     1995760000                       # Time in different power states
system.mem_ctrls2.memoryStateTime::PRE_PDN            0                       # Time in different power states
system.mem_ctrls2.memoryStateTime::ACT    46644051250                       # Time in different power states
system.mem_ctrls2.memoryStateTime::ACT_PDN            0                       # Time in different power states
system.mem_ctrls2.actEnergy::0              313830720                       # Energy for activate commands per rank (pJ)
system.mem_ctrls2.actEnergy::1              305189640                       # Energy for activate commands per rank (pJ)
system.mem_ctrls2.preEnergy::0              171237000                       # Energy for precharge commands per rank (pJ)
system.mem_ctrls2.preEnergy::1              166522125                       # Energy for precharge commands per rank (pJ)
system.mem_ctrls2.readEnergy::0             851674200                       # Energy for read commands per rank (pJ)
system.mem_ctrls2.readEnergy::1             836323800                       # Energy for read commands per rank (pJ)
system.mem_ctrls2.writeEnergy::0            197588160                       # Energy for write commands per rank (pJ)
system.mem_ctrls2.writeEnergy::1            191380320                       # Energy for write commands per rank (pJ)
system.mem_ctrls2.refreshEnergy::0         3903706560                       # Energy for refresh commands per rank (pJ)
system.mem_ctrls2.refreshEnergy::1         3903706560                       # Energy for refresh commands per rank (pJ)
system.mem_ctrls2.actBackEnergy::0        25304542380                       # Energy for active background per rank (pJ)
system.mem_ctrls2.actBackEnergy::1        24533111790                       # Energy for active background per rank (pJ)
system.mem_ctrls2.preBackEnergy::0        13663542000                       # Energy for precharge background per rank (pJ)
system.mem_ctrls2.preBackEnergy::1        14340235500                       # Energy for precharge background per rank (pJ)
system.mem_ctrls2.totalEnergy::0          44406121020                       # Total energy per rank (pJ)
system.mem_ctrls2.totalEnergy::1          44276469735                       # Total energy per rank (pJ)
system.mem_ctrls2.averagePower::0          742.980882                       # Core power per rank (mW)
system.mem_ctrls2.averagePower::1          740.811622                       # Core power per rank (mW)
system.mem_ctrls3.bytes_read::ruby.dir_cntrl3     13836480                       # Number of bytes read from this memory
system.mem_ctrls3.bytes_read::total          13836480                       # Number of bytes read from this memory
system.mem_ctrls3.bytes_written::ruby.dir_cntrl3      3838464                       # Number of bytes written to this memory
system.mem_ctrls3.bytes_written::total        3838464                       # Number of bytes written to this memory
system.mem_ctrls3.num_reads::ruby.dir_cntrl3       216195                       # Number of read requests responded to by this memory
system.mem_ctrls3.num_reads::total             216195                       # Number of read requests responded to by this memory
system.mem_ctrls3.num_writes::ruby.dir_cntrl3        59976                       # Number of write requests responded to by this memory
system.mem_ctrls3.num_writes::total             59976                       # Number of write requests responded to by this memory
system.mem_ctrls3.bw_read::ruby.dir_cntrl3    231491272                       # Total read bandwidth from this memory (bytes/s)
system.mem_ctrls3.bw_read::total            231491272                       # Total read bandwidth from this memory (bytes/s)
system.mem_ctrls3.bw_write::ruby.dir_cntrl3     64219434                       # Write bandwidth from this memory (bytes/s)
system.mem_ctrls3.bw_write::total            64219434                       # Write bandwidth from this memory (bytes/s)
system.mem_ctrls3.bw_total::ruby.dir_cntrl3    295710706                       # Total bandwidth to/from this memory (bytes/s)
system.mem_ctrls3.bw_total::total           295710706                       # Total bandwidth to/from this memory (bytes/s)
system.mem_ctrls3.readReqs                     216196                       # Number of read requests accepted
system.mem_ctrls3.writeReqs                     59976                       # Number of write requests accepted
system.mem_ctrls3.readBursts                   216196                       # Number of DRAM read bursts, including those serviced by the write queue
system.mem_ctrls3.writeBursts                   59976                       # Number of DRAM write bursts, including those merged in the write queue
system.mem_ctrls3.bytesReadDRAM              13835840                       # Total number of bytes read from DRAM
system.mem_ctrls3.bytesReadWrQ                    704                       # Total number of bytes read from write queue
system.mem_ctrls3.bytesWritten                3838208                       # Total number of bytes written to DRAM
system.mem_ctrls3.bytesReadSys               13836544                       # Total read bytes from the system interface side
system.mem_ctrls3.bytesWrittenSys             3838464                       # Total written bytes from the system interface side
system.mem_ctrls3.servicedByWrQ                    11                       # Number of DRAM read bursts serviced by the write queue
system.mem_ctrls3.mergedWrBursts                    0                       # Number of DRAM write bursts merged with an existing one
system.mem_ctrls3.neitherReadNorWriteReqs            0                       # Number of requests that are neither read nor write
system.mem_ctrls3.perBankRdBursts::0            13270                       # Per bank write bursts
system.mem_ctrls3.perBankRdBursts::1            13822                       # Per bank write bursts
system.mem_ctrls3.perBankRdBursts::2            13450                       # Per bank write bursts
system.mem_ctrls3.perBankRdBursts::3            13898                       # Per bank write bursts
system.mem_ctrls3.perBankRdBursts::4            13490                       # Per bank write bursts
system.mem_ctrls3.perBankRdBursts::5            14079                       # Per bank write bursts
system.mem_ctrls3.perBankRdBursts::6            13510                       # Per bank write bursts
system.mem_ctrls3.perBankRdBursts::7            13491                       # Per bank write bursts
system.mem_ctrls3.perBankRdBursts::8            13398                       # Per bank write bursts
system.mem_ctrls3.perBankRdBursts::9            13703                       # Per bank write bursts
system.mem_ctrls3.perBankRdBursts::10           13441                       # Per bank write bursts
system.mem_ctrls3.perBankRdBursts::11           13659                       # Per bank write bursts
system.mem_ctrls3.perBankRdBursts::12           13200                       # Per bank write bursts
system.mem_ctrls3.perBankRdBursts::13           13061                       # Per bank write bursts
system.mem_ctrls3.perBankRdBursts::14           13312                       # Per bank write bursts
system.mem_ctrls3.perBankRdBursts::15           13401                       # Per bank write bursts
system.mem_ctrls3.perBankWrBursts::0             3684                       # Per bank write bursts
system.mem_ctrls3.perBankWrBursts::1             3769                       # Per bank write bursts
system.mem_ctrls3.perBankWrBursts::2             3752                       # Per bank write bursts
system.mem_ctrls3.perBankWrBursts::3             3975                       # Per bank write bursts
system.mem_ctrls3.perBankWrBursts::4             3768                       # Per bank write bursts
system.mem_ctrls3.perBankWrBursts::5             3909                       # Per bank write bursts
system.mem_ctrls3.perBankWrBursts::6             3808                       # Per bank write bursts
system.mem_ctrls3.perBankWrBursts::7             3773                       # Per bank write bursts
system.mem_ctrls3.perBankWrBursts::8             3662                       # Per bank write bursts
system.mem_ctrls3.perBankWrBursts::9             3908                       # Per bank write bursts
system.mem_ctrls3.perBankWrBursts::10            3671                       # Per bank write bursts
system.mem_ctrls3.perBankWrBursts::11            3622                       # Per bank write bursts
system.mem_ctrls3.perBankWrBursts::12            3573                       # Per bank write bursts
system.mem_ctrls3.perBankWrBursts::13            3595                       # Per bank write bursts
system.mem_ctrls3.perBankWrBursts::14            3795                       # Per bank write bursts
system.mem_ctrls3.perBankWrBursts::15            3708                       # Per bank write bursts
system.mem_ctrls3.numRdRetry                      186                       # Number of times read queue was full causing retry
system.mem_ctrls3.numWrRetry                      187                       # Number of times write queue was full causing retry
system.mem_ctrls3.totGap                  59770320000                       # Total gap between requests
system.mem_ctrls3.readPktSize::0                    0                       # Read request sizes (log2)
system.mem_ctrls3.readPktSize::1                    0                       # Read request sizes (log2)
system.mem_ctrls3.readPktSize::2                    0                       # Read request sizes (log2)
system.mem_ctrls3.readPktSize::3                    0                       # Read request sizes (log2)
system.mem_ctrls3.readPktSize::4                    0                       # Read request sizes (log2)
system.mem_ctrls3.readPktSize::5                    0                       # Read request sizes (log2)
system.mem_ctrls3.readPktSize::6               216196                       # Read request sizes (log2)
[...]
system.ruby.L2Cache_Controller.IS.Mem_Data::total        13541                      
system.ruby.L2Cache_Controller.IM.Mem_Data |        6009      3.16%      3.16% |        5933      3.12%      6.28% |        5941      3.12%      9.40% |        5950      3.13%     12.53% |        5948      3.13%     15.66% |        5948      3.13%     18.78% |        5940      3.12%     21.91% |        5927      3.12%     25.02% |        5949      3.13%     28.15% |        5944      3.13%     31.28% |        5929      3.12%     34.39% |        5949      3.13%     37.52% |        5939      3.12%     40.64% |        5934      3.12%     43.76% |        5932      3.12%     46.88% |        5932      3.12%     50.00% |        5946      3.13%     53.13% |        5946      3.13%     56.25% |        5947      3.13%     59.38% |        5937      3.12%     62.50% |        5943      3.12%     65.63% |        5952      3.13%     68.75% |        5932      3.12%     71.87% |        5940      3.12%     75.00% |        5947      3.13%     78.12% |        5943      3.12%     81.25% |        5953      3.13%     84.38% |        5943      3.12%     87.50% |        5941      3.12%     90.63% |        5946      3.13%     93.75% |        5954      3.13%     96.88% |        5931      3.12%    100.00%
system.ruby.L2Cache_Controller.IM.Mem_Data::total       190205                      
system.ruby.L2Cache_Controller.SS_MB.Exclusive_Unblock |         209     81.01%     81.01% |           6      2.33%     83.33% |           3      1.16%     84.50% |           6      2.33%     86.82% |           0      0.00%     86.82% |           1      0.39%     87.21% |           1      0.39%     87.60% |           0      0.00%     87.60% |           0      0.00%     87.60% |           1      0.39%     87.98% |           0      0.00%     87.98% |           0      0.00%     87.98% |           5      1.94%     89.92% |           0      0.00%     89.92% |           2      0.78%     90.70% |           1      0.39%     91.09% |           0      0.00%     91.09% |           0      0.00%     91.09% |          10      3.88%     94.96% |           2      0.78%     95.74% |           0      0.00%     95.74% |           0      0.00%     95.74% |           0      0.00%     95.74% |           0      0.00%     95.74% |           1      0.39%     96.12% |           0      0.00%     96.12% |           2      0.78%     96.90% |           1      0.39%     97.29% |           4      1.55%     98.84% |           1      0.39%     99.22% |           1      0.39%     99.61% |           1      0.39%    100.00%
system.ruby.L2Cache_Controller.SS_MB.Exclusive_Unblock::total          258                      
system.ruby.L2Cache_Controller.MT_MB.L1_GETS |           1      9.09%      9.09% |           0      0.00%      9.09% |           0      0.00%      9.09% |           1      9.09%     18.18% |           0      0.00%     18.18% |           0      0.00%     18.18% |           0      0.00%     18.18% |           0      0.00%     18.18% |           0      0.00%     18.18% |           0      0.00%     18.18% |           0      0.00%     18.18% |           0      0.00%     18.18% |           0      0.00%     18.18% |           0      0.00%     18.18% |           0      0.00%     18.18% |           0      0.00%     18.18% |           0      0.00%     18.18% |           4     36.36%     54.55% |           5     45.45%    100.00% |           0      0.00%    100.00% |           0      0.00%    100.00% |           0      0.00%    100.00% |           0      0.00%    100.00% |           0      0.00%    100.00% |           0      0.00%    100.00% |           0      0.00%    100.00% |           0      0.00%    100.00% |           0      0.00%    100.00% |           0      0.00%    100.00% |           0      0.00%    100.00% |           0      0.00%    100.00% |           0      0.00%    100.00%
system.ruby.L2Cache_Controller.MT_MB.L1_GETS::total           11                      
system.ruby.L2Cache_Controller.MT_MB.Exclusive_Unblock |       77653      7.09%      7.09% |       33389      3.05%     10.14% |       32686      2.99%     13.13% |       32854      3.00%     16.13% |       33108      3.02%     19.15% |       32033      2.93%     22.08% |       31957      2.92%     24.99% |       31675      2.89%     27.89% |       33956      3.10%     30.99% |       32355      2.95%     33.94% |       34303      3.13%     37.08% |       33124      3.03%     40.10% |       32694      2.99%     43.09% |       31744      2.90%     45.99% |       31778      2.90%     48.89% |       31669      2.89%     51.78% |       34274      3.13%     54.91% |       32114      2.93%     57.84% |       32965      3.01%     60.85% |       32539      2.97%     63.82% |       33034      3.02%     66.84% |       32476      2.97%     69.81% |       33015      3.02%     72.82% |       32009      2.92%     75.75% |       33647      3.07%     78.82% |       32343      2.95%     81.77% |       32844      3.00%     84.77% |       31818      2.91%     87.68% |       33166      3.03%     90.71% |       31907      2.91%     93.62% |       34284      3.13%     96.75% |       35573      3.25%    100.00%
system.ruby.L2Cache_Controller.MT_MB.Exclusive_Unblock::total      1094986                      
system.ruby.L2Cache_Controller.MT_IIB.L1_GETS |           2     10.00%     10.00% |           3     15.00%     25.00% |           1      5.00%     30.00% |           0      0.00%     30.00% |           0      0.00%     30.00% |           0      0.00%     30.00% |           0      0.00%     30.00% |           0      0.00%     30.00% |           0      0.00%     30.00% |           0      0.00%     30.00% |           0      0.00%     30.00% |           0      0.00%     30.00% |           0      0.00%     30.00% |           0      0.00%     30.00% |           0      0.00%     30.00% |           0      0.00%     30.00% |           0      0.00%     30.00% |           5     25.00%     55.00% |           4     20.00%     75.00% |           5     25.00%    100.00% |           0      0.00%    100.00% |           0      0.00%    100.00% |           0      0.00%    100.00% |           0      0.00%    100.00% |           0      0.00%    100.00% |           0      0.00%    100.00% |           0      0.00%    100.00% |           0      0.00%    100.00% |           0      0.00%    100.00% |           0      0.00%    100.00% |           0      0.00%    100.00% |           0      0.00%    100.00%
system.ruby.L2Cache_Controller.MT_IIB.L1_GETS::total           20                      
system.ruby.L2Cache_Controller.MT_IIB.WB_Data |         175      7.57%      7.57% |          71      3.07%     10.64% |          69      2.98%     13.62% |          64      2.77%     16.39% |          69      2.98%     19.38% |          69      2.98%     22.36% |          69      2.98%     25.35% |          69      2.98%     28.33% |          69      2.98%     31.31% |          69      2.98%     34.30% |          69      2.98%     37.28% |          65      2.81%     40.10% |          73      3.16%     43.25% |          69      2.98%     46.24% |          69      2.98%     49.22% |          69      2.98%     52.21% |          69      2.98%     55.19% |          69      2.98%     58.17% |          70      3.03%     61.20% |          68      2.94%     64.14% |          69      2.98%     67.13% |          69      2.98%     70.11% |          71      3.07%     73.18% |          69      2.98%     76.17% |          69      2.98%     79.15% |          69      2.98%     82.14% |          69      2.98%     85.12% |          69      2.98%     88.11% |          69      2.98%     91.09% |          68      2.94%     94.03% |          69      2.98%     97.02% |          69      2.98%    100.00%
system.ruby.L2Cache_Controller.MT_IIB.WB_Data::total         2312                      
system.ruby.L2Cache_Controller.MT_IIB.WB_Data_clean |         593     96.74%     96.74% |           4      0.65%     97.39% |           3      0.49%     97.88% |           3      0.49%     98.37% |           0      0.00%     98.37% |           0      0.00%     98.37% |           0      0.00%     98.37% |           0      0.00%     98.37% |           0      0.00%     98.37% |           0      0.00%     98.37% |           0      0.00%     98.37% |           0      0.00%     98.37% |           0      0.00%     98.37% |           0      0.00%     98.37% |           1      0.16%     98.53% |           0      0.00%     98.53% |           1      0.16%     98.69% |           3      0.49%     99.18% |           3      0.49%     99.67% |           2      0.33%    100.00% |           0      0.00%    100.00% |           0      0.00%    100.00% |           0      0.00%    100.00% |           0      0.00%    100.00% |           0      0.00%    100.00% |           0      0.00%    100.00% |           0      0.00%    100.00% |           0      0.00%    100.00% |           0      0.00%    100.00% |           0      0.00%    100.00% |           0      0.00%    100.00% |           0      0.00%    100.00%
system.ruby.L2Cache_Controller.MT_IIB.WB_Data_clean::total          613                      
system.ruby.L2Cache_Controller.MT_IIB.Unblock |           0      0.00%      0.00% |           0      0.00%      0.00% |           0      0.00%      0.00% |           5     33.33%     33.33% |           0      0.00%     33.33% |           0      0.00%     33.33% |           0      0.00%     33.33% |           0      0.00%     33.33% |           0      0.00%     33.33% |           0      0.00%     33.33% |           0      0.00%     33.33% |           4     26.67%     60.00% |           0      0.00%     60.00% |           0      0.00%     60.00% |           0      0.00%     60.00% |           0      0.00%     60.00% |           0      0.00%     60.00% |           0      0.00%     60.00% |           0      0.00%     60.00% |           2     13.33%     73.33% |           0      0.00%     73.33% |           0      0.00%     73.33% |           0      0.00%     73.33% |           0      0.00%     73.33% |           0      0.00%     73.33% |           1      6.67%     80.00% |           0      0.00%     80.00% |           0      0.00%     80.00% |           2     13.33%     93.33% |           1      6.67%    100.00% |           0      0.00%    100.00% |           0      0.00%    100.00%
system.ruby.L2Cache_Controller.MT_IIB.Unblock::total           15                      
system.ruby.L2Cache_Controller.MT_IB.WB_Data |           0      0.00%      0.00% |           0      0.00%      0.00% |           0      0.00%      0.00% |           5     33.33%     33.33% |           0      0.00%     33.33% |           0      0.00%     33.33% |           0      0.00%     33.33% |           0      0.00%     33.33% |           0      0.00%     33.33% |           0      0.00%     33.33% |           0      0.00%     33.33% |           4     26.67%     60.00% |           0      0.00%     60.00% |           0      0.00%     60.00% |           0      0.00%     60.00% |           0      0.00%     60.00% |           0      0.00%     60.00% |           0      0.00%     60.00% |           0      0.00%     60.00% |           2     13.33%     73.33% |           0      0.00%     73.33% |           0      0.00%     73.33% |           0      0.00%     73.33% |           0      0.00%     73.33% |           0      0.00%     73.33% |           1      6.67%     80.00% |           0      0.00%     80.00% |           0      0.00%     80.00% |           2     13.33%     93.33% |           1      6.67%    100.00% |           0      0.00%    100.00% |           0      0.00%    100.00%
system.ruby.L2Cache_Controller.MT_IB.WB_Data::total           15                      
system.ruby.L2Cache_Controller.MT_SB.L1_GETS |           0      0.00%      0.00% |           0      0.00%      0.00% |           0      0.00%      0.00% |           1    100.00%    100.00% |           0      0.00%    100.00% |           0      0.00%    100.00% |           0      0.00%    100.00% |           0      0.00%    100.00% |           0      0.00%    100.00% |           0      0.00%    100.00% |           0      0.00%    100.00% |           0      0.00%    100.00% |           0      0.00%    100.00% |           0      0.00%    100.00% |           0      0.00%    100.00% |           0      0.00%    100.00% |           0      0.00%    100.00% |           0      0.00%    100.00% |           0      0.00%    100.00% |           0      0.00%    100.00% |           0      0.00%    100.00% |           0      0.00%    100.00% |           0      0.00%    100.00% |           0      0.00%    100.00% |           0      0.00%    100.00% |           0      0.00%    100.00% |           0      0.00%    100.00% |           0      0.00%    100.00% |           0      0.00%    100.00% |           0      0.00%    100.00% |           0      0.00%    100.00% |           0      0.00%    100.00%
system.ruby.L2Cache_Controller.MT_SB.L1_GETS::total            1                      
system.ruby.L2Cache_Controller.MT_SB.Unblock |         768     26.26%     26.26% |          75      2.56%     28.82% |          72      2.46%     31.28% |          67      2.29%     33.57% |          69      2.36%     35.93% |          69      2.36%     38.29% |          69      2.36%     40.65% |          69      2.36%     43.01% |          69      2.36%     45.37% |          69      2.36%     47.73% |          69      2.36%     50.09% |          65      2.22%     52.31% |          73      2.50%     54.80% |          69      2.36%     57.16% |          70      2.39%     59.56% |          69      2.36%     61.91% |          70      2.39%     64.31% |          72      2.46%     66.77% |          73      2.50%     69.26% |          70      2.39%     71.66% |          69      2.36%     74.02% |          69      2.36%     76.38% |          71      2.43%     78.80% |          69      2.36%     81.16% |          69      2.36%     83.52% |          69      2.36%     85.88% |          69      2.36%     88.24% |          69      2.36%     90.60% |          69      2.36%     92.96% |          68      2.32%     95.28% |          69      2.36%     97.64% |          69      2.36%    100.00%
system.ruby.L2Cache_Controller.MT_SB.Unblock::total         2925                      
system.ruby.SimicsNetworkPortInterface_Controller.MessageSend |       78781      4.39%      4.39% |      896842     50.00%     54.39% |      108200      6.03%     60.42% |      103092      5.75%     66.17% |      101478      5.66%     71.83% |      103385      5.76%     77.59% |      101511      5.66%     83.25% |      103725      5.78%     89.04% |       97597      5.44%     94.48% |       99073      5.52%    100.00% |           0      0.00%    100.00% |           0      0.00%    100.00% |           0      0.00%    100.00% |           0      0.00%    100.00% |           0      0.00%    100.00% |           0      0.00%    100.00% |           0      0.00%    100.00% |           0      0.00%    100.00% |           0      0.00%    100.00% |           0      0.00%    100.00% |           0      0.00%    100.00% |           0      0.00%    100.00% |           0      0.00%    100.00% |           0      0.00%    100.00% |           0      0.00%    100.00% |           0      0.00%    100.00% |           0      0.00%    100.00% |           0      0.00%    100.00% |           0      0.00%    100.00% |           0      0.00%    100.00% |           0      0.00%    100.00% |           0      0.00%    100.00%
system.ruby.SimicsNetworkPortInterface_Controller.MessageSend::total      1793684                      
system.ruby.SimicsNetworkPortInterface_Controller.MessageRecv |       78781      4.39%      4.39% |      896842     50.00%     54.39% |      108200      6.03%     60.42% |      103092      5.75%     66.17% |      101478      5.66%     71.83% |      103385      5.76%     77.59% |      101511      5.66%     83.25% |      103725      5.78%     89.04% |       97597      5.44%     94.48% |       99073      5.52%    100.00% |           0      0.00%    100.00% |           0      0.00%    100.00% |           0      0.00%    100.00% |           0      0.00%    100.00% |           0      0.00%    100.00% |           0      0.00%    100.00% |           0      0.00%    100.00% |           0      0.00%    100.00% |           0      0.00%    100.00% |           0      0.00%    100.00% |           0      0.00%    100.00% |           0      0.00%    100.00% |           0      0.00%    100.00% |           0      0.00%    100.00% |           0      0.00%    100.00% |           0      0.00%    100.00% |           0      0.00%    100.00% |           0      0.00%    100.00% |           0      0.00%    100.00% |           0      0.00%    100.00% |           0      0.00%    100.00% |           0      0.00%    100.00%
system.ruby.SimicsNetworkPortInterface_Controller.MessageRecv::total      1793684                      
system.ruby.SimicsNetworkPortInterface_Controller.A.MessageSend |       78781      4.39%      4.39% |      896842     50.00%     54.39% |      108200      6.03%     60.42% |      103092      5.75%     66.17% |      101478      5.66%     71.83% |      103385      5.76%     77.59% |      101511      5.66%     83.25% |      103725      5.78%     89.04% |       97597      5.44%     94.48% |       99073      5.52%    100.00% |           0      0.00%    100.00% |           0      0.00%    100.00% |           0      0.00%    100.00% |           0      0.00%    100.00% |           0      0.00%    100.00% |           0      0.00%    100.00% |           0      0.00%    100.00% |           0      0.00%    100.00% |           0      0.00%    100.00% |           0      0.00%    100.00% |           0      0.00%    100.00% |           0      0.00%    100.00% |           0      0.00%    100.00% |           0      0.00%    100.00% |           0      0.00%    100.00% |           0      0.00%    100.00% |           0      0.00%    100.00% |           0      0.00%    100.00% |           0      0.00%    100.00% |           0      0.00%    100.00% |           0      0.00%    100.00% |           0      0.00%    100.00%
system.ruby.SimicsNetworkPortInterface_Controller.A.MessageSend::total      1793684                      
system.ruby.SimicsNetworkPortInterface_Controller.A.MessageRecv |       78781      4.39%      4.39% |      896842     50.00%     54.39% |      108200      6.03%     60.42% |      103092      5.75%     66.17% |      101478      5.66%     71.83% |      103385      5.76%     77.59% |      101511      5.66%     83.25% |      103725      5.78%     89.04% |       97597      5.44%     94.48% |       99073      5.52%    100.00% |           0      0.00%    100.00% |           0      0.00%    100.00% |           0      0.00%    100.00% |           0      0.00%    100.00% |           0      0.00%    100.00% |           0      0.00%    100.00% |           0      0.00%    100.00% |           0      0.00%    100.00% |           0      0.00%    100.00% |           0      0.00%    100.00% |           0      0.00%    100.00% |           0      0.00%    100.00% |           0      0.00%    100.00% |           0      0.00%    100.00% |           0      0.00%    100.00% |           0      0.00%    100.00% |           0      0.00%    100.00% |           0      0.00%    100.00% |           0      0.00%    100.00% |           0      0.00%    100.00% |           0      0.00%    100.00% |           0      0.00%    100.00%
system.ruby.SimicsNetworkPortInterface_Controller.A.MessageRecv::total      1793684                      
system.switch_cpus.kern.inst.arm                    0                       # number of arm instructions executed
system.switch_cpus.kern.inst.quiesce                0                       # number of quiesce instructions executed

---------- End Simulation Statistics   ----------
