
---------- Begin Simulation Statistics ----------
sim_seconds                                  0.056738                       # Number of seconds simulated
sim_ticks                                 56738386500                       # Number of ticks simulated
final_tick                               5232906465000                       # Number of ticks from beginning of simulation (restored from checkpoints and never reset)
sim_freq                                 1000000000000                       # Frequency of simulated ticks
host_inst_rate                                  29536                       # Simulator instruction rate (inst/s)
host_op_rate                                    52403                       # Simulator op (including micro ops) rate (op/s)
host_tick_rate                               74306372                       # Simulator tick rate (ticks/s)
host_mem_usage                                3638496                       # Number of bytes of host memory used
host_seconds                                   763.57                       # Real time elapsed on the host
sim_insts                                    22552780                       # Number of instructions simulated
sim_ops                                      40013507                       # Number of ops (including micro ops) simulated
system.voltage_domain.voltage                       1                       # Voltage in Volts
system.clk_domain.clock                           500                       # Clock period in ticks
system.mem_ctrls0.bytes_read::ruby.dir_cntrl0     12585664                       # Number of bytes read from this memory
system.mem_ctrls0.bytes_read::total          12585664                       # Number of bytes read from this memory
system.mem_ctrls0.bytes_written::ruby.dir_cntrl0      8028800                       # Number of bytes written to this memory
system.mem_ctrls0.bytes_written::total        8028800                       # Number of bytes written to this memory
system.mem_ctrls0.num_reads::ruby.dir_cntrl0       196651                       # Number of read requests responded to by this memory
system.mem_ctrls0.num_reads::total             196651                       # Number of read requests responded to by this memory
system.mem_ctrls0.num_writes::ruby.dir_cntrl0       125450                       # Number of write requests responded to by this memory
system.mem_ctrls0.num_writes::total            125450                       # Number of write requests responded to by this memory
system.mem_ctrls0.bw_read::ruby.dir_cntrl0    221819209                       # Total read bandwidth from this memory (bytes/s)
system.mem_ctrls0.bw_read::total            221819209                       # Total read bandwidth from this memory (bytes/s)
system.mem_ctrls0.bw_write::ruby.dir_cntrl0    141505610                       # Write bandwidth from this memory (bytes/s)
system.mem_ctrls0.bw_write::total           141505610                       # Write bandwidth from this memory (bytes/s)
system.mem_ctrls0.bw_total::ruby.dir_cntrl0    363324819                       # Total bandwidth to/from this memory (bytes/s)
system.mem_ctrls0.bw_total::total           363324819                       # Total bandwidth to/from this memory (bytes/s)
system.mem_ctrls0.readReqs                     196651                       # Number of read requests accepted
system.mem_ctrls0.writeReqs                    125450                       # Number of write requests accepted
system.mem_ctrls0.readBursts                   196651                       # Number of DRAM read bursts, including those serviced by the write queue
system.mem_ctrls0.writeBursts                  125450                       # Number of DRAM write bursts, including those merged in the write queue
system.mem_ctrls0.bytesReadDRAM              12584320                       # Total number of bytes read from DRAM
system.mem_ctrls0.bytesReadWrQ                   1344                       # Total number of bytes read from write queue
system.mem_ctrls0.bytesWritten                8028672                       # Total number of bytes written to DRAM
system.mem_ctrls0.bytesReadSys               12585664                       # Total read bytes from the system interface side
system.mem_ctrls0.bytesWrittenSys             8028800                       # Total written bytes from the system interface side
system.mem_ctrls0.servicedByWrQ                    21                       # Number of DRAM read bursts serviced by the write queue
system.mem_ctrls0.mergedWrBursts                    0                       # Number of DRAM write bursts merged with an existing one
system.mem_ctrls0.neitherReadNorWriteReqs            0                       # Number of requests that are neither read nor write
system.mem_ctrls0.perBankRdBursts::0            12069                       # Per bank write bursts
system.mem_ctrls0.perBankRdBursts::1            12235                       # Per bank write bursts
system.mem_ctrls0.perBankRdBursts::2            11973                       # Per bank write bursts
system.mem_ctrls0.perBankRdBursts::3            12444                       # Per bank write bursts
system.mem_ctrls0.perBankRdBursts::4            12163                       # Per bank write bursts
system.mem_ctrls0.perBankRdBursts::5            12232                       # Per bank write bursts
system.mem_ctrls0.perBankRdBursts::6            12547                       # Per bank write bursts
system.mem_ctrls0.perBankRdBursts::7            12628                       # Per bank write bursts
system.mem_ctrls0.perBankRdBursts::8            12347                       # Per bank write bursts
system.mem_ctrls0.perBankRdBursts::9            12780                       # Per bank write bursts
system.mem_ctrls0.perBankRdBursts::10           12361                       # Per bank write bursts
system.mem_ctrls0.perBankRdBursts::11           12687                       # Per bank write bursts
system.mem_ctrls0.perBankRdBursts::12           12183                       # Per bank write bursts
system.mem_ctrls0.perBankRdBursts::13           11943                       # Per bank write bursts
system.mem_ctrls0.perBankRdBursts::14           12222                       # Per bank write bursts
system.mem_ctrls0.perBankRdBursts::15           11816                       # Per bank write bursts
system.mem_ctrls0.perBankWrBursts::0             7765                       # Per bank write bursts
system.mem_ctrls0.perBankWrBursts::1             7637                       # Per bank write bursts
system.mem_ctrls0.perBankWrBursts::2             7792                       # Per bank write bursts
system.mem_ctrls0.perBankWrBursts::3             7844                       # Per bank write bursts
system.mem_ctrls0.perBankWrBursts::4             7810                       # Per bank write bursts
system.mem_ctrls0.perBankWrBursts::5             7909                       # Per bank write bursts
system.mem_ctrls0.perBankWrBursts::6             7936                       # Per bank write bursts
system.mem_ctrls0.perBankWrBursts::7             8024                       # Per bank write bursts
system.mem_ctrls0.perBankWrBursts::8             7936                       # Per bank write bursts
system.mem_ctrls0.perBankWrBursts::9             8044                       # Per bank write bursts
system.mem_ctrls0.perBankWrBursts::10            7860                       # Per bank write bursts
system.mem_ctrls0.perBankWrBursts::11            7874                       # Per bank write bursts
system.mem_ctrls0.perBankWrBursts::12            7740                       # Per bank write bursts
system.mem_ctrls0.perBankWrBursts::13            7762                       # Per bank write bursts
system.mem_ctrls0.perBankWrBursts::14            7918                       # Per bank write bursts
system.mem_ctrls0.perBankWrBursts::15            7597                       # Per bank write bursts
system.mem_ctrls0.numRdRetry                   105856                       # Number of times read queue was full causing retry
system.mem_ctrls0.numWrRetry                     7566                       # Number of times write queue was full causing retry
system.mem_ctrls0.totGap                  56737835000                       # Total gap between requests
system.mem_ctrls0.readPktSize::0                    0                       # Read request sizes (log2)
system.mem_ctrls0.readPktSize::1                    0                       # Read request sizes (log2)
system.mem_ctrls0.readPktSize::2                    0                       # Read request sizes (log2)
system.mem_ctrls0.readPktSize::3                    0                       # Read request sizes (log2)
system.mem_ctrls0.readPktSize::4                    0                       # Read request sizes (log2)
system.mem_ctrls0.readPktSize::5                    0                       # Read request sizes (log2)
system.mem_ctrls0.readPktSize::6               196651                       # Read request sizes (log2)
system.mem_ctrls0.writePktSize::0                   0                       # Write request sizes (log2)
system.mem_ctrls0.writePktSize::1                   0                       # Write request sizes (log2)
system.mem_ctrls0.writePktSize::2                   0                       # Write request sizes (log2)
system.mem_ctrls0.writePktSize::3                   0                       # Write request sizes (log2)
system.mem_ctrls0.writePktSize::4                   0                       # Write request sizes (log2)
system.mem_ctrls0.writePktSize::5                   0                       # Write request sizes (log2)
system.mem_ctrls0.writePktSize::6              125450                       # Write request sizes (log2)
system.mem_ctrls0.rdQLenPdf::0                  68490                       # What read queue length does an incoming req see
system.mem_ctrls0.rdQLenPdf::1                   2518                       # What read queue length does an incoming req see
system.mem_ctrls0.rdQLenPdf::2                   1283                       # What read queue length does an incoming req see
system.mem_ctrls0.rdQLenPdf::3                    606                       # What read queue length does an incoming req see
system.mem_ctrls0.rdQLenPdf::4                    563                       # What read queue length does an incoming req see
system.mem_ctrls0.rdQLenPdf::5                    604                       # What read queue length does an incoming req see
system.mem_ctrls0.rdQLenPdf::6                    628                       # What read queue length does an incoming req see
system.mem_ctrls0.rdQLenPdf::7                    637                       # What read queue length does an incoming req see
system.mem_ctrls0.rdQLenPdf::8                    545                       # What read queue length does an incoming req see
system.mem_ctrls0.rdQLenPdf::9                    536                       # What read queue length does an incoming req see
system.mem_ctrls0.rdQLenPdf::10                   552                       # What read queue length does an incoming req see
system.mem_ctrls0.rdQLenPdf::11                   565                       # What read queue length does an incoming req see
system.mem_ctrls0.rdQLenPdf::12                   562                       # What read queue length does an incoming req see
system.mem_ctrls0.rdQLenPdf::13                   538                       # What read queue length does an incoming req see
system.mem_ctrls0.rdQLenPdf::14                   535                       # What read queue length does an incoming req see
system.mem_ctrls0.rdQLenPdf::15                   536                       # What read queue length does an incoming req see
system.mem_ctrls0.rdQLenPdf::16                   549                       # What read queue length does an incoming req see
system.mem_ctrls0.rdQLenPdf::17                   532                       # What read queue length does an incoming req see
system.mem_ctrls0.rdQLenPdf::18                   501                       # What read queue length does an incoming req see
system.mem_ctrls0.rdQLenPdf::19                   509                       # What read queue length does an incoming req see
system.mem_ctrls0.rdQLenPdf::20                   512                       # What read queue length does an incoming req see
system.mem_ctrls0.rdQLenPdf::21                   528                       # What read queue length does an incoming req see
system.mem_ctrls0.rdQLenPdf::22                   487                       # What read queue length does an incoming req see
system.mem_ctrls0.rdQLenPdf::23                   478                       # What read queue length does an incoming req see
system.mem_ctrls0.rdQLenPdf::24                   487                       # What read queue length does an incoming req see
system.mem_ctrls0.rdQLenPdf::25                   491                       # What read queue length does an incoming req see
system.mem_ctrls0.rdQLenPdf::26                   540                       # What read queue length does an incoming req see
system.mem_ctrls0.rdQLenPdf::27                   605                       # What read queue length does an incoming req see
system.mem_ctrls0.rdQLenPdf::28                   666                       # What read queue length does an incoming req see
system.mem_ctrls0.rdQLenPdf::29                   784                       # What read queue length does an incoming req see
system.mem_ctrls0.rdQLenPdf::30                  1146                       # What read queue length does an incoming req see
system.mem_ctrls0.rdQLenPdf::31                108117                       # What read queue length does an incoming req see
system.mem_ctrls0.wrQLenPdf::0                  16746                       # What write queue length does an incoming req see
system.mem_ctrls0.wrQLenPdf::1                  17691                       # What write queue length does an incoming req see
system.mem_ctrls0.wrQLenPdf::2                  18383                       # What write queue length does an incoming req see
system.mem_ctrls0.wrQLenPdf::3                  18922                       # What write queue length does an incoming req see
system.mem_ctrls0.wrQLenPdf::4                  19568                       # What write queue length does an incoming req see
system.mem_ctrls0.wrQLenPdf::5                   8373                       # What write queue length does an incoming req see
system.mem_ctrls0.wrQLenPdf::6                  10144                       # What write queue length does an incoming req see
system.mem_ctrls0.wrQLenPdf::7                  15623                       # What write queue length does an incoming req see
system.mem_ctrls0.bytesPerActivate::samples        98404                       # Bytes accessed per row activation
system.mem_ctrls0.bytesPerActivate::mean   209.462705                       # Bytes accessed per row activation
system.mem_ctrls0.bytesPerActivate::gmean   155.886584                       # Bytes accessed per row activation
system.mem_ctrls0.bytesPerActivate::stdev   176.113386                       # Bytes accessed per row activation
system.mem_ctrls0.bytesPerActivate::0-127        32941     33.48%     33.48% # Bytes accessed per row activation
system.mem_ctrls0.bytesPerActivate::128-255        29075     29.55%     63.02% # Bytes accessed per row activation
system.mem_ctrls0.bytesPerActivate::256-383        23919     24.31%     87.33% # Bytes accessed per row activation
system.mem_ctrls0.bytesPerActivate::384-511         5610      5.70%     93.03% # Bytes accessed per row activation
system.mem_ctrls0.bytesPerActivate::512-639         3342      3.40%     96.43% # Bytes accessed per row activation
system.mem_ctrls0.bytesPerActivate::640-767         1258      1.28%     97.70% # Bytes accessed per row activation
system.mem_ctrls0.bytesPerActivate::768-895          681      0.69%     98.40% # Bytes accessed per row activation
system.mem_ctrls0.bytesPerActivate::896-1023          527      0.54%     98.93% # Bytes accessed per row activation
system.mem_ctrls0.bytesPerActivate::1024-1151         1051      1.07%    100.00% # Bytes accessed per row activation
system.mem_ctrls0.bytesPerActivate::total        98404                       # Bytes accessed per row activation
system.mem_ctrls0.rdPerTurnAround::samples        17358                       # Reads before turning the bus around for writes
system.mem_ctrls0.rdPerTurnAround::mean     11.327803                       # Reads before turning the bus around for writes
system.mem_ctrls0.rdPerTurnAround::stdev    32.146144                       # Reads before turning the bus around for writes
system.mem_ctrls0.rdPerTurnAround::0-127        17349     99.95%     99.95% # Reads before turning the bus around for writes
system.mem_ctrls0.rdPerTurnAround::128-255            8      0.05%     99.99% # Reads before turning the bus around for writes
system.mem_ctrls0.rdPerTurnAround::3968-4095            1      0.01%    100.00% # Reads before turning the bus around for writes
system.mem_ctrls0.rdPerTurnAround::total        17358                       # Reads before turning the bus around for writes
system.mem_ctrls0.wrPerTurnAround::samples        17358                       # Writes before turning the bus around for reads
system.mem_ctrls0.wrPerTurnAround::mean      7.227100                       # Writes before turning the bus around for reads
system.mem_ctrls0.wrPerTurnAround::gmean     6.540732                       # Writes before turning the bus around for reads
system.mem_ctrls0.wrPerTurnAround::stdev     3.647143                       # Writes before turning the bus around for reads
system.mem_ctrls0.wrPerTurnAround::4-7          12282     70.76%     70.76% # Writes before turning the bus around for reads
system.mem_ctrls0.wrPerTurnAround::8-11          2067     11.91%     82.67% # Writes before turning the bus around for reads
system.mem_ctrls0.wrPerTurnAround::12-15         1982     11.42%     94.08% # Writes before turning the bus around for reads
system.mem_ctrls0.wrPerTurnAround::16-19         1027      5.92%    100.00% # Writes before turning the bus around for reads
system.mem_ctrls0.wrPerTurnAround::total        17358                       # Writes before turning the bus around for reads
system.mem_ctrls0.totQLat                 38359570819                       # Total ticks spent queuing
system.mem_ctrls0.totMemAccLat            42046383319                       # Total ticks spent from burst creation until serviced by the DRAM
system.mem_ctrls0.totBusLat                 983150000                       # Total ticks spent in databus transfers
system.mem_ctrls0.avgQLat                   195085.04                       # Average queueing delay per DRAM burst
system.mem_ctrls0.avgBusLat                   5000.00                       # Average bus latency per DRAM burst
system.mem_ctrls0.avgMemAccLat              213835.04                       # Average memory access latency per DRAM burst
system.mem_ctrls0.avgRdBW                      221.80                       # Average DRAM read bandwidth in MiByte/s
system.mem_ctrls0.avgWrBW                      141.50                       # Average achieved write bandwidth in MiByte/s
system.mem_ctrls0.avgRdBWSys                   221.82                       # Average system read bandwidth in MiByte/s
system.mem_ctrls0.avgWrBWSys                   141.51                       # Average system write bandwidth in MiByte/s
system.mem_ctrls0.peakBW                     12800.00                       # Theoretical peak bandwidth in MiByte/s
system.mem_ctrls0.busUtil                        2.84                       # Data bus utilization in percentage
system.mem_ctrls0.busUtilRead                    1.73                       # Data bus utilization in percentage for reads
system.mem_ctrls0.busUtilWrite                   1.11                       # Data bus utilization in percentage for writes
system.mem_ctrls0.avgRdQLen                      1.70                       # Average read queue length when enqueuing
system.mem_ctrls0.avgWrQLen                      2.94                       # Average write queue length when enqueuing
system.mem_ctrls0.readRowHits                  146847                       # Number of row buffer hits during reads
system.mem_ctrls0.writeRowHits                  76814                       # Number of row buffer hits during writes
system.mem_ctrls0.readRowHitRate                74.68                       # Row buffer hit rate for reads
system.mem_ctrls0.writeRowHitRate               61.23                       # Row buffer hit rate for writes
system.mem_ctrls0.avgGap                    176149.20                       # Average gap between requests
system.mem_ctrls0.pageHitRate                   69.44                       # Row buffer hit rate, read and write combined
system.mem_ctrls0.memoryStateTime::IDLE   11627119750                       # Time in different power states
system.mem_ctrls0.memoryStateTime::REF     1894360000                       # Time in different power states
system.mem_ctrls0.memoryStateTime::PRE_PDN            0                       # Time in different power states
system.mem_ctrls0.memoryStateTime::ACT    43209443500                       # Time in different power states
system.mem_ctrls0.memoryStateTime::ACT_PDN            0                       # Time in different power states
system.mem_ctrls0.actEnergy::0              373584960                       # Energy for activate commands per rank (pJ)
system.mem_ctrls0.actEnergy::1              369978840                       # Energy for activate commands per rank (pJ)
system.mem_ctrls0.preEnergy::0              203841000                       # Energy for precharge commands per rank (pJ)
system.mem_ctrls0.preEnergy::1              201873375                       # Energy for precharge commands per rank (pJ)
system.mem_ctrls0.readEnergy::0             766217400                       # Energy for read commands per rank (pJ)
system.mem_ctrls0.readEnergy::1             766451400                       # Energy for read commands per rank (pJ)
system.mem_ctrls0.writeEnergy::0            406095120                       # Energy for write commands per rank (pJ)
system.mem_ctrls0.writeEnergy::1            406347840                       # Energy for write commands per rank (pJ)
system.mem_ctrls0.refreshEnergy::0         3705368160                       # Energy for refresh commands per rank (pJ)
system.mem_ctrls0.refreshEnergy::1         3705368160                       # Energy for refresh commands per rank (pJ)
system.mem_ctrls0.actBackEnergy::0        22311427635                       # Energy for active background per rank (pJ)
system.mem_ctrls0.actBackEnergy::1        21789852840                       # Energy for active background per rank (pJ)
system.mem_ctrls0.preBackEnergy::0        14467118250                       # Energy for precharge background per rank (pJ)
system.mem_ctrls0.preBackEnergy::1        14924640000                       # Energy for precharge background per rank (pJ)
system.mem_ctrls0.totalEnergy::0          42233652525                       # Total energy per rank (pJ)
system.mem_ctrls0.totalEnergy::1          42164512455                       # Total energy per rank (pJ)
system.mem_ctrls0.averagePower::0          744.455757                       # Core power per rank (mW)
system.mem_ctrls0.averagePower::1          743.237019                       # Core power per rank (mW)
system.mem_ctrls1.bytes_read::ruby.dir_cntrl1     12345600                       # Number of bytes read from this memory
system.mem_ctrls1.bytes_read::total          12345600                       # Number of bytes read from this memory
system.mem_ctrls1.bytes_written::ruby.dir_cntrl1      7807424                       # Number of bytes written to this memory
system.mem_ctrls1.bytes_written::total        7807424                       # Number of bytes written to this memory
system.mem_ctrls1.num_reads::ruby.dir_cntrl1       192900                       # Number of read requests responded to by this memory
system.mem_ctrls1.num_reads::total             192900                       # Number of read requests responded to by this memory
system.mem_ctrls1.num_writes::ruby.dir_cntrl1       121991                       # Number of write requests responded to by this memory
system.mem_ctrls1.num_writes::total            121991                       # Number of write requests responded to by this memory
system.mem_ctrls1.bw_read::ruby.dir_cntrl1    217588140                       # Total read bandwidth from this memory (bytes/s)
system.mem_ctrls1.bw_read::total            217588140                       # Total read bandwidth from this memory (bytes/s)
system.mem_ctrls1.bw_write::ruby.dir_cntrl1    137603913                       # Write bandwidth from this memory (bytes/s)
system.mem_ctrls1.bw_write::total           137603913                       # Write bandwidth from this memory (bytes/s)
system.mem_ctrls1.bw_total::ruby.dir_cntrl1    355192053                       # Total bandwidth to/from this memory (bytes/s)
system.mem_ctrls1.bw_total::total           355192053                       # Total bandwidth to/from this memory (bytes/s)
system.mem_ctrls1.readReqs                     192900                       # Number of read requests accepted
system.mem_ctrls1.writeReqs                    121991                       # Number of write requests accepted
system.mem_ctrls1.readBursts                   192900                       # Number of DRAM read bursts, including those serviced by the write queue
system.mem_ctrls1.writeBursts                  121991                       # Number of DRAM write bursts, including those merged in the write queue
system.mem_ctrls1.bytesReadDRAM              12344320                       # Total number of bytes read from DRAM
system.mem_ctrls1.bytesReadWrQ                   1280                       # Total number of bytes read from write queue
system.mem_ctrls1.bytesWritten                7807360                       # Total number of bytes written to DRAM
system.mem_ctrls1.bytesReadSys               12345600                       # Total read bytes from the system interface side
system.mem_ctrls1.bytesWrittenSys             7807424                       # Total written bytes from the system interface side
system.mem_ctrls1.servicedByWrQ                    20                       # Number of DRAM read bursts serviced by the write queue
system.mem_ctrls1.mergedWrBursts                    0                       # Number of DRAM write bursts merged with an existing one
system.mem_ctrls1.neitherReadNorWriteReqs            0                       # Number of requests that are neither read nor write
system.mem_ctrls1.perBankRdBursts::0            11841                       # Per bank write bursts
system.mem_ctrls1.perBankRdBursts::1            11998                       # Per bank write bursts
system.mem_ctrls1.perBankRdBursts::2            11736                       # Per bank write bursts
system.mem_ctrls1.perBankRdBursts::3            12199                       # Per bank write bursts
system.mem_ctrls1.perBankRdBursts::4            11945                       # Per bank write bursts
system.mem_ctrls1.perBankRdBursts::5            12030                       # Per bank write bursts
system.mem_ctrls1.perBankRdBursts::6            12357                       # Per bank write bursts
system.mem_ctrls1.perBankRdBursts::7            12403                       # Per bank write bursts
system.mem_ctrls1.perBankRdBursts::8            12092                       # Per bank write bursts
system.mem_ctrls1.perBankRdBursts::9            12543                       # Per bank write bursts
system.mem_ctrls1.perBankRdBursts::10           12114                       # Per bank write bursts
system.mem_ctrls1.perBankRdBursts::11           12476                       # Per bank write bursts
system.mem_ctrls1.perBankRdBursts::12           11936                       # Per bank write bursts
system.mem_ctrls1.perBankRdBursts::13           11696                       # Per bank write bursts
system.mem_ctrls1.perBankRdBursts::14           11909                       # Per bank write bursts
system.mem_ctrls1.perBankRdBursts::15           11605                       # Per bank write bursts
system.mem_ctrls1.perBankWrBursts::0             7560                       # Per bank write bursts
system.mem_ctrls1.perBankWrBursts::1             7444                       # Per bank write bursts
system.mem_ctrls1.perBankWrBursts::2             7587                       # Per bank write bursts
system.mem_ctrls1.perBankWrBursts::3             7628                       # Per bank write bursts
system.mem_ctrls1.perBankWrBursts::4             7606                       # Per bank write bursts
system.mem_ctrls1.perBankWrBursts::5             7709                       # Per bank write bursts
system.mem_ctrls1.perBankWrBursts::6             7706                       # Per bank write bursts
system.mem_ctrls1.perBankWrBursts::7             7803                       # Per bank write bursts
system.mem_ctrls1.perBankWrBursts::8             7718                       # Per bank write bursts
system.mem_ctrls1.perBankWrBursts::9             7828                       # Per bank write bursts
system.mem_ctrls1.perBankWrBursts::10            7641                       # Per bank write bursts
system.mem_ctrls1.perBankWrBursts::11            7663                       # Per bank write bursts
system.mem_ctrls1.perBankWrBursts::12            7521                       # Per bank write bursts
system.mem_ctrls1.perBankWrBursts::13            7542                       # Per bank write bursts
system.mem_ctrls1.perBankWrBursts::14            7645                       # Per bank write bursts
system.mem_ctrls1.perBankWrBursts::15            7389                       # Per bank write bursts
system.mem_ctrls1.numRdRetry                   102234                       # Number of times read queue was full causing retry
system.mem_ctrls1.numWrRetry                     7159                       # Number of times write queue was full causing retry
system.mem_ctrls1.totGap                  56737584500                       # Total gap between requests
system.mem_ctrls1.readPktSize::0                    0                       # Read request sizes (log2)
system.mem_ctrls1.readPktSize::1                    0                       # Read request sizes (log2)
system.mem_ctrls1.readPktSize::2                    0                       # Read request sizes (log2)
system.mem_ctrls1.readPktSize::3                    0                       # Read request sizes (log2)
system.mem_ctrls1.readPktSize::4                    0                       # Read request sizes (log2)
system.mem_ctrls1.readPktSize::5                    0                       # Read request sizes (log2)
system.mem_ctrls1.readPktSize::6               192900                       # Read request sizes (log2)
system.mem_ctrls1.writePktSize::0                   0                       # Write request sizes (log2)
system.mem_ctrls1.writePktSize::1                   0                       # Write request sizes (log2)
system.mem_ctrls1.writePktSize::2                   0                       # Write request sizes (log2)
system.mem_ctrls1.writePktSize::3                   0                       # Write request sizes (log2)
system.mem_ctrls1.writePktSize::4                   0                       # Write request sizes (log2)
system.mem_ctrls1.writePktSize::5                   0                       # Write request sizes (log2)
system.mem_ctrls1.writePktSize::6              121991                       # Write request sizes (log2)
system.mem_ctrls1.rdQLenPdf::0                  67281                       # What read queue length does an incoming req see
system.mem_ctrls1.rdQLenPdf::1                   1175                       # What read queue length does an incoming req see
system.mem_ctrls1.rdQLenPdf::2                    764                       # What read queue length does an incoming req see
system.mem_ctrls1.rdQLenPdf::3                    735                       # What read queue length does an incoming req see
system.mem_ctrls1.rdQLenPdf::4                    761                       # What read queue length does an incoming req see
system.mem_ctrls1.rdQLenPdf::5                    806                       # What read queue length does an incoming req see
system.mem_ctrls1.rdQLenPdf::6                    786                       # What read queue length does an incoming req see
system.mem_ctrls1.rdQLenPdf::7                    749                       # What read queue length does an incoming req see
system.mem_ctrls1.rdQLenPdf::8                    816                       # What read queue length does an incoming req see
system.mem_ctrls1.rdQLenPdf::9                    732                       # What read queue length does an incoming req see
system.mem_ctrls1.rdQLenPdf::10                   720                       # What read queue length does an incoming req see
system.mem_ctrls1.rdQLenPdf::11                   683                       # What read queue length does an incoming req see
system.mem_ctrls1.rdQLenPdf::12                   700                       # What read queue length does an incoming req see
system.mem_ctrls1.rdQLenPdf::13                   662                       # What read queue length does an incoming req see
system.mem_ctrls1.rdQLenPdf::14                   627                       # What read queue length does an incoming req see
system.mem_ctrls1.rdQLenPdf::15                   621                       # What read queue length does an incoming req see
system.mem_ctrls1.rdQLenPdf::16                   627                       # What read queue length does an incoming req see
system.mem_ctrls1.rdQLenPdf::17                   639                       # What read queue length does an incoming req see
system.mem_ctrls1.rdQLenPdf::18                   623                       # What read queue length does an incoming req see
system.mem_ctrls1.rdQLenPdf::19                   593                       # What read queue length does an incoming req see
system.mem_ctrls1.rdQLenPdf::20                   571                       # What read queue length does an incoming req see
system.mem_ctrls1.rdQLenPdf::21                   582                       # What read queue length does an incoming req see
system.mem_ctrls1.rdQLenPdf::22                   599                       # What read queue length does an incoming req see
system.mem_ctrls1.rdQLenPdf::23                   613                       # What read queue length does an incoming req see
system.mem_ctrls1.rdQLenPdf::24                   613                       # What read queue length does an incoming req see
system.mem_ctrls1.rdQLenPdf::25                   650                       # What read queue length does an incoming req see
system.mem_ctrls1.rdQLenPdf::26                   677                       # What read queue length does an incoming req see
system.mem_ctrls1.rdQLenPdf::27                   606                       # What read queue length does an incoming req see
system.mem_ctrls1.rdQLenPdf::28                   702                       # What read queue length does an incoming req see
system.mem_ctrls1.rdQLenPdf::29                   720                       # What read queue length does an incoming req see
system.mem_ctrls1.rdQLenPdf::30                  1053                       # What read queue length does an incoming req see
system.mem_ctrls1.rdQLenPdf::31                104394                       # What read queue length does an incoming req see
system.mem_ctrls1.wrQLenPdf::0                  16156                       # What write queue length does an incoming req see
system.mem_ctrls1.wrQLenPdf::1                  17122                       # What write queue length does an incoming req see
system.mem_ctrls1.wrQLenPdf::2                  17759                       # What write queue length does an incoming req see
system.mem_ctrls1.wrQLenPdf::3                  18389                       # What write queue length does an incoming req see
system.mem_ctrls1.wrQLenPdf::4                  19103                       # What write queue length does an incoming req see
system.mem_ctrls1.wrQLenPdf::5                   8298                       # What write queue length does an incoming req see
system.mem_ctrls1.wrQLenPdf::6                   9943                       # What write queue length does an incoming req see
system.mem_ctrls1.wrQLenPdf::7                  15221                       # What write queue length does an incoming req see
system.mem_ctrls1.bytesPerActivate::samples        91604                       # Bytes accessed per row activation
system.mem_ctrls1.bytesPerActivate::mean   219.977818                       # Bytes accessed per row activation
system.mem_ctrls1.bytesPerActivate::gmean   165.444433                       # Bytes accessed per row activation
system.mem_ctrls1.bytesPerActivate::stdev   178.835283                       # Bytes accessed per row activation
system.mem_ctrls1.bytesPerActivate::0-127        27122     29.61%     29.61% # Bytes accessed per row activation
system.mem_ctrls1.bytesPerActivate::128-255        27980     30.54%     60.15% # Bytes accessed per row activation
system.mem_ctrls1.bytesPerActivate::256-383        23961     26.16%     86.31% # Bytes accessed per row activation
system.mem_ctrls1.bytesPerActivate::384-511         5632      6.15%     92.46% # Bytes accessed per row activation
system.mem_ctrls1.bytesPerActivate::512-639         3391      3.70%     96.16% # Bytes accessed per row activation
system.mem_ctrls1.bytesPerActivate::640-767         1197      1.31%     97.47% # Bytes accessed per row activation
system.mem_ctrls1.bytesPerActivate::768-895          749      0.82%     98.28% # Bytes accessed per row activation
system.mem_ctrls1.bytesPerActivate::896-1023          518      0.57%     98.85% # Bytes accessed per row activation
system.mem_ctrls1.bytesPerActivate::1024-1151         1054      1.15%    100.00% # Bytes accessed per row activation
system.mem_ctrls1.bytesPerActivate::total        91604                       # Bytes accessed per row activation
system.mem_ctrls1.rdPerTurnAround::samples        16786                       # Reads before turning the bus around for writes
system.mem_ctrls1.rdPerTurnAround::mean     11.490468                       # Reads before turning the bus around for writes
system.mem_ctrls1.rdPerTurnAround::stdev    26.464289                       # Reads before turning the bus around for writes
system.mem_ctrls1.rdPerTurnAround::0-127        16779     99.96%     99.96% # Reads before turning the bus around for writes
system.mem_ctrls1.rdPerTurnAround::128-255            5      0.03%     99.99% # Reads before turning the bus around for writes
system.mem_ctrls1.rdPerTurnAround::1152-1279            1      0.01%     99.99% # Reads before turning the bus around for writes
system.mem_ctrls1.rdPerTurnAround::2816-2943            1      0.01%    100.00% # Reads before turning the bus around for writes
system.mem_ctrls1.rdPerTurnAround::total        16786                       # Reads before turning the bus around for writes
system.mem_ctrls1.wrPerTurnAround::samples        16786                       # Writes before turning the bus around for reads
system.mem_ctrls1.wrPerTurnAround::mean      7.267366                       # Writes before turning the bus around for reads
system.mem_ctrls1.wrPerTurnAround::gmean     6.567087                       # Writes before turning the bus around for reads
system.mem_ctrls1.wrPerTurnAround::stdev     3.684101                       # Writes before turning the bus around for reads
system.mem_ctrls1.wrPerTurnAround::4-7          11737     69.92%     69.92% # Writes before turning the bus around for reads
system.mem_ctrls1.wrPerTurnAround::8-11          2090     12.45%     82.37% # Writes before turning the bus around for reads
system.mem_ctrls1.wrPerTurnAround::12-15         1883     11.22%     93.59% # Writes before turning the bus around for reads
system.mem_ctrls1.wrPerTurnAround::16-19         1076      6.41%    100.00% # Writes before turning the bus around for reads
system.mem_ctrls1.wrPerTurnAround::total        16786                       # Writes before turning the bus around for reads
system.mem_ctrls1.totQLat                 37260365008                       # Total ticks spent queuing
system.mem_ctrls1.totMemAccLat            40876865008                       # Total ticks spent from burst creation until serviced by the DRAM
system.mem_ctrls1.totBusLat                 964400000                       # Total ticks spent in databus transfers
system.mem_ctrls1.avgQLat                   193179.00                       # Average queueing delay per DRAM burst
system.mem_ctrls1.avgBusLat                   5000.00                       # Average bus latency per DRAM burst
system.mem_ctrls1.avgMemAccLat              211929.00                       # Average memory access latency per DRAM burst
system.mem_ctrls1.avgRdBW                      217.57                       # Average DRAM read bandwidth in MiByte/s
system.mem_ctrls1.avgWrBW                      137.60                       # Average achieved write bandwidth in MiByte/s
system.mem_ctrls1.avgRdBWSys                   217.59                       # Average system read bandwidth in MiByte/s
system.mem_ctrls1.avgWrBWSys                   137.60                       # Average system write bandwidth in MiByte/s
system.mem_ctrls1.peakBW                     12800.00                       # Theoretical peak bandwidth in MiByte/s
system.mem_ctrls1.busUtil                        2.77                       # Data bus utilization in percentage
system.mem_ctrls1.busUtilRead                    1.70                       # Data bus utilization in percentage for reads
system.mem_ctrls1.busUtilWrite                   1.08                       # Data bus utilization in percentage for writes
system.mem_ctrls1.avgRdQLen                      1.68                       # Average read queue length when enqueuing
system.mem_ctrls1.avgWrQLen                      2.98                       # Average write queue length when enqueuing
system.mem_ctrls1.readRowHits                  145428                       # Number of row buffer hits during reads
system.mem_ctrls1.writeRowHits                  77828                       # Number of row buffer hits during writes
system.mem_ctrls1.readRowHitRate                75.40                       # Row buffer hit rate for reads
system.mem_ctrls1.writeRowHitRate               63.80                       # Row buffer hit rate for writes
system.mem_ctrls1.avgGap                    180181.66                       # Average gap between requests
system.mem_ctrls1.pageHitRate                   70.90                       # Row buffer hit rate, read and write combined
system.mem_ctrls1.memoryStateTime::IDLE   11892068500                       # Time in different power states
system.mem_ctrls1.memoryStateTime::REF     1894360000                       # Time in different power states
system.mem_ctrls1.memoryStateTime::PRE_PDN            0                       # Time in different power states
system.mem_ctrls1.memoryStateTime::ACT    42944491000                       # Time in different power states
system.mem_ctrls1.memoryStateTime::ACT_PDN            0                       # Time in different power states
system.mem_ctrls1.actEnergy::0              348576480                       # Energy for activate commands per rank (pJ)
system.mem_ctrls1.actEnergy::1              343685160                       # Energy for activate commands per rank (pJ)
system.mem_ctrls1.preEnergy::0              190195500                       # Energy for precharge commands per rank (pJ)
system.mem_ctrls1.preEnergy::1              187526625                       # Energy for precharge commands per rank (pJ)
system.mem_ctrls1.readEnergy::0             752419200                       # Energy for read commands per rank (pJ)
system.mem_ctrls1.readEnergy::1             751085400                       # Energy for read commands per rank (pJ)
system.mem_ctrls1.writeEnergy::0            395273520                       # Energy for write commands per rank (pJ)
system.mem_ctrls1.writeEnergy::1            394806960                       # Energy for write commands per rank (pJ)
system.mem_ctrls1.refreshEnergy::0         3705368160                       # Energy for refresh commands per rank (pJ)
system.mem_ctrls1.refreshEnergy::1         3705368160                       # Energy for refresh commands per rank (pJ)
system.mem_ctrls1.actBackEnergy::0        22088187135                       # Energy for active background per rank (pJ)
system.mem_ctrls1.actBackEnergy::1        21530979360                       # Energy for active background per rank (pJ)
system.mem_ctrls1.preBackEnergy::0        14662941000                       # Energy for precharge background per rank (pJ)
system.mem_ctrls1.preBackEnergy::1        15151719750                       # Energy for precharge background per rank (pJ)
system.mem_ctrls1.totalEnergy::0          42142960995                       # Total energy per rank (pJ)
system.mem_ctrls1.totalEnergy::1          42065171415                       # Total energy per rank (pJ)
system.mem_ctrls1.averagePower::0          742.857179                       # Core power per rank (mW)
system.mem_ctrls1.averagePower::1          741.485976                       # Core power per rank (mW)
system.mem_ctrls2.bytes_read::ruby.dir_cntrl2     12346624                       # Number of bytes read from this memory
system.mem_ctrls2.bytes_read::total          12346624                       # Number of bytes read from this memory
system.mem_ctrls2.bytes_written::ruby.dir_cntrl2      7807616                       # Number of bytes written to this memory
system.mem_ctrls2.bytes_written::total        7807616                       # Number of bytes written to this memory
system.mem_ctrls2.num_reads::ruby.dir_cntrl2       192916                       # Number of read requests responded to by this memory
system.mem_ctrls2.num_reads::total             192916                       # Number of read requests responded to by this memory
system.mem_ctrls2.num_writes::ruby.dir_cntrl2       121994                       # Number of write requests responded to by this memory
system.mem_ctrls2.num_writes::total            121994                       # Number of write requests responded to by this memory
system.mem_ctrls2.bw_read::ruby.dir_cntrl2    217606188                       # Total read bandwidth from this memory (bytes/s)
system.mem_ctrls2.bw_read::total            217606188                       # Total read bandwidth from this memory (bytes/s)
system.mem_ctrls2.bw_write::ruby.dir_cntrl2    137607297                       # Write bandwidth from this memory (bytes/s)
system.mem_ctrls2.bw_write::total           137607297                       # Write bandwidth from this memory (bytes/s)
system.mem_ctrls2.bw_total::ruby.dir_cntrl2    355213485                       # Total bandwidth to/from this memory (bytes/s)
system.mem_ctrls2.bw_total::total           355213485                       # Total bandwidth to/from this memory (bytes/s)
system.mem_ctrls2.readReqs                     192916                       # Number of read requests accepted
system.mem_ctrls2.writeReqs                    121994                       # Number of write requests accepted
system.mem_ctrls2.readBursts                   192916                       # Number of DRAM read bursts, including those serviced by the write queue
system.mem_ctrls2.writeBursts                  121994                       # Number of DRAM write bursts, including those merged in the write queue
system.mem_ctrls2.bytesReadDRAM              12345344                       # Total number of bytes read from DRAM
system.mem_ctrls2.bytesReadWrQ                   1280                       # Total number of bytes read from write queue
system.mem_ctrls2.bytesWritten                7807424                       # Total number of bytes written to DRAM
system.mem_ctrls2.bytesReadSys               12346624                       # Total read bytes from the system interface side
system.mem_ctrls2.bytesWrittenSys             7807616                       # Total written bytes from the system interface side
system.mem_ctrls2.servicedByWrQ                    20                       # Number of DRAM read bursts serviced by the write queue
system.mem_ctrls2.mergedWrBursts                    0                       # Number of DRAM write bursts merged with an existing one
system.mem_ctrls2.neitherReadNorWriteReqs            0                       # Number of requests that are neither read nor write
system.mem_ctrls2.perBankRdBursts::0            11837                       # Per bank write bursts
system.mem_ctrls2.perBankRdBursts::1            12026                       # Per bank write bursts
system.mem_ctrls2.perBankRdBursts::2            11755                       # Per bank write bursts
system.mem_ctrls2.perBankRdBursts::3            12245                       # Per bank write bursts
system.mem_ctrls2.perBankRdBursts::4            11950                       # Per bank write bursts
system.mem_ctrls2.perBankRdBursts::5            12006                       # Per bank write bursts
system.mem_ctrls2.perBankRdBursts::6            12328                       # Per bank write bursts
system.mem_ctrls2.perBankRdBursts::7            12396                       # Per bank write bursts
system.mem_ctrls2.perBankRdBursts::8            12085                       # Per bank write bursts
system.mem_ctrls2.perBankRdBursts::9            12532                       # Per bank write bursts
system.mem_ctrls2.perBankRdBursts::10           12133                       # Per bank write bursts
system.mem_ctrls2.perBankRdBursts::11           12515                       # Per bank write bursts
system.mem_ctrls2.perBankRdBursts::12           11941                       # Per bank write bursts
system.mem_ctrls2.perBankRdBursts::13           11660                       # Per bank write bursts
system.mem_ctrls2.perBankRdBursts::14           11877                       # Per bank write bursts
system.mem_ctrls2.perBankRdBursts::15           11610                       # Per bank write bursts
system.mem_ctrls2.perBankWrBursts::0             7553                       # Per bank write bursts
system.mem_ctrls2.perBankWrBursts::1             7441                       # Per bank write bursts
system.mem_ctrls2.perBankWrBursts::2             7584                       # Per bank write bursts
system.mem_ctrls2.perBankWrBursts::3             7638                       # Per bank write bursts
system.mem_ctrls2.perBankWrBursts::4             7599                       # Per bank write bursts
system.mem_ctrls2.perBankWrBursts::5             7693                       # Per bank write bursts
system.mem_ctrls2.perBankWrBursts::6             7697                       # Per bank write bursts
system.mem_ctrls2.perBankWrBursts::7             7813                       # Per bank write bursts
system.mem_ctrls2.perBankWrBursts::8             7720                       # Per bank write bursts
system.mem_ctrls2.perBankWrBursts::9             7828                       # Per bank write bursts
system.mem_ctrls2.perBankWrBursts::10            7643                       # Per bank write bursts
system.mem_ctrls2.perBankWrBursts::11            7673                       # Per bank write bursts
system.mem_ctrls2.perBankWrBursts::12            7530                       # Per bank write bursts
system.mem_ctrls2.perBankWrBursts::13            7537                       # Per bank write bursts
system.mem_ctrls2.perBankWrBursts::14            7651                       # Per bank write bursts
system.mem_ctrls2.perBankWrBursts::15            7391                       # Per bank write bursts
system.mem_ctrls2.numRdRetry                   101363                       # Number of times read queue was full causing retry
system.mem_ctrls2.numWrRetry                     7551                       # Number of times write queue was full causing retry
system.mem_ctrls2.totGap                  56738213000                       # Total gap between requests
system.mem_ctrls2.readPktSize::0                    0                       # Read request sizes (log2)
system.mem_ctrls2.readPktSize::1                    0                       # Read request sizes (log2)
system.mem_ctrls2.readPktSize::2                    0                       # Read request sizes (log2)
system.mem_ctrls2.readPktSize::3                    0                       # Read request sizes (log2)
system.mem_ctrls2.readPktSize::4                    0                       # Read request sizes (log2)
system.mem_ctrls2.readPktSize::5                    0                       # Read request sizes (log2)
system.mem_ctrls2.readPktSize::6               192916                       # Read request sizes (log2)
system.mem_ctrls2.writePktSize::0                   0                       # Write request sizes (log2)
system.mem_ctrls2.writePktSize::1                   0                       # Write request sizes (log2)
system.mem_ctrls2.writePktSize::2                   0                       # Write request sizes (log2)
system.mem_ctrls2.writePktSize::3                   0                       # Write request sizes (log2)
system.mem_ctrls2.writePktSize::4                   0                       # Write request sizes (log2)
system.mem_ctrls2.writePktSize::5                   0                       # Write request sizes (log2)
system.mem_ctrls2.writePktSize::6              121994                       # Write request sizes (log2)
system.mem_ctrls2.rdQLenPdf::0                  67435                       # What read queue length does an incoming req see
system.mem_ctrls2.rdQLenPdf::1                   1152                       # What read queue length does an incoming req see
system.mem_ctrls2.rdQLenPdf::2                    799                       # What read queue length does an incoming req see
system.mem_ctrls2.rdQLenPdf::3                    747                       # What read queue length does an incoming req see
system.mem_ctrls2.rdQLenPdf::4                    745                       # What read queue length does an incoming req see
system.mem_ctrls2.rdQLenPdf::5                    753                       # What read queue length does an incoming req see
system.mem_ctrls2.rdQLenPdf::6                    720                       # What read queue length does an incoming req see
system.mem_ctrls2.rdQLenPdf::7                    697                       # What read queue length does an incoming req see
system.mem_ctrls2.rdQLenPdf::8                    686                       # What read queue length does an incoming req see
system.mem_ctrls2.rdQLenPdf::9                    711                       # What read queue length does an incoming req see
system.mem_ctrls2.rdQLenPdf::10                   706                       # What read queue length does an incoming req see
system.mem_ctrls2.rdQLenPdf::11                   652                       # What read queue length does an incoming req see
system.mem_ctrls2.rdQLenPdf::12                   682                       # What read queue length does an incoming req see
system.mem_ctrls2.rdQLenPdf::13                   680                       # What read queue length does an incoming req see
system.mem_ctrls2.rdQLenPdf::14                   706                       # What read queue length does an incoming req see
system.mem_ctrls2.rdQLenPdf::15                   674                       # What read queue length does an incoming req see
system.mem_ctrls2.rdQLenPdf::16                   684                       # What read queue length does an incoming req see
system.mem_ctrls2.rdQLenPdf::17                   654                       # What read queue length does an incoming req see
system.mem_ctrls2.rdQLenPdf::18                   662                       # What read queue length does an incoming req see
system.mem_ctrls2.rdQLenPdf::19                   634                       # What read queue length does an incoming req see
system.mem_ctrls2.rdQLenPdf::20                   605                       # What read queue length does an incoming req see
system.mem_ctrls2.rdQLenPdf::21                   602                       # What read queue length does an incoming req see
system.mem_ctrls2.rdQLenPdf::22                   665                       # What read queue length does an incoming req see
system.mem_ctrls2.rdQLenPdf::23                   650                       # What read queue length does an incoming req see
system.mem_ctrls2.rdQLenPdf::24                   637                       # What read queue length does an incoming req see
system.mem_ctrls2.rdQLenPdf::25                   647                       # What read queue length does an incoming req see
system.mem_ctrls2.rdQLenPdf::26                   676                       # What read queue length does an incoming req see
system.mem_ctrls2.rdQLenPdf::27                   739                       # What read queue length does an incoming req see
system.mem_ctrls2.rdQLenPdf::28                   811                       # What read queue length does an incoming req see
system.mem_ctrls2.rdQLenPdf::29                   864                       # What read queue length does an incoming req see
system.mem_ctrls2.rdQLenPdf::30                  1158                       # What read queue length does an incoming req see
system.mem_ctrls2.rdQLenPdf::31                103663                       # What read queue length does an incoming req see
system.mem_ctrls2.wrQLenPdf::0                  16207                       # What write queue length does an incoming req see
system.mem_ctrls2.wrQLenPdf::1                  17097                       # What write queue length does an incoming req see
system.mem_ctrls2.wrQLenPdf::2                  17806                       # What write queue length does an incoming req see
system.mem_ctrls2.wrQLenPdf::3                  18374                       # What write queue length does an incoming req see
system.mem_ctrls2.wrQLenPdf::4                  19151                       # What write queue length does an incoming req see
system.mem_ctrls2.wrQLenPdf::5                   8286                       # What write queue length does an incoming req see
system.mem_ctrls2.wrQLenPdf::6                   9678                       # What write queue length does an incoming req see
system.mem_ctrls2.wrQLenPdf::7                  15395                       # What write queue length does an incoming req see
system.mem_ctrls2.bytesPerActivate::samples        91184                       # Bytes accessed per row activation
system.mem_ctrls2.bytesPerActivate::mean   220.993859                       # Bytes accessed per row activation
system.mem_ctrls2.bytesPerActivate::gmean   166.558103                       # Bytes accessed per row activation
system.mem_ctrls2.bytesPerActivate::stdev   178.462015                       # Bytes accessed per row activation
system.mem_ctrls2.bytesPerActivate::0-127        26640     29.22%     29.22% # Bytes accessed per row activation
system.mem_ctrls2.bytesPerActivate::128-255        27724     30.40%     59.62% # Bytes accessed per row activation
system.mem_ctrls2.bytesPerActivate::256-383        24312     26.66%     86.28% # Bytes accessed per row activation
system.mem_ctrls2.bytesPerActivate::384-511         5640      6.19%     92.47% # Bytes accessed per row activation
system.mem_ctrls2.bytesPerActivate::512-639         3405      3.73%     96.20% # Bytes accessed per row activation
system.mem_ctrls2.bytesPerActivate::640-767         1205      1.32%     97.52% # Bytes accessed per row activation
system.mem_ctrls2.bytesPerActivate::768-895          701      0.77%     98.29% # Bytes accessed per row activation
system.mem_ctrls2.bytesPerActivate::896-1023          488      0.54%     98.83% # Bytes accessed per row activation
system.mem_ctrls2.bytesPerActivate::1024-1151         1069      1.17%    100.00% # Bytes accessed per row activation
system.mem_ctrls2.bytesPerActivate::total        91184                       # Bytes accessed per row activation
system.mem_ctrls2.rdPerTurnAround::samples        16828                       # Reads before turning the bus around for writes
system.mem_ctrls2.rdPerTurnAround::mean     11.462206                       # Reads before turning the bus around for writes
system.mem_ctrls2.rdPerTurnAround::stdev    26.483790                       # Reads before turning the bus around for writes
system.mem_ctrls2.rdPerTurnAround::0-127        16821     99.96%     99.96% # Reads before turning the bus around for writes
system.mem_ctrls2.rdPerTurnAround::128-255            5      0.03%     99.99% # Reads before turning the bus around for writes
system.mem_ctrls2.rdPerTurnAround::1152-1279            1      0.01%     99.99% # Reads before turning the bus around for writes
system.mem_ctrls2.rdPerTurnAround::2816-2943            1      0.01%    100.00% # Reads before turning the bus around for writes
system.mem_ctrls2.rdPerTurnAround::total        16828                       # Reads before turning the bus around for writes
system.mem_ctrls2.wrPerTurnAround::samples        16828                       # Writes before turning the bus around for reads
system.mem_ctrls2.wrPerTurnAround::mean      7.249287                       # Writes before turning the bus around for reads
system.mem_ctrls2.wrPerTurnAround::gmean     6.556080                       # Writes before turning the bus around for reads
system.mem_ctrls2.wrPerTurnAround::stdev     3.664880                       # Writes before turning the bus around for reads
system.mem_ctrls2.wrPerTurnAround::4-7          11758     69.87%     69.87% # Writes before turning the bus around for reads
system.mem_ctrls2.wrPerTurnAround::8-11          2142     12.73%     82.60% # Writes before turning the bus around for reads
system.mem_ctrls2.wrPerTurnAround::12-15         1866     11.09%     93.69% # Writes before turning the bus around for reads
system.mem_ctrls2.wrPerTurnAround::16-19         1062      6.31%    100.00% # Writes before turning the bus around for reads
system.mem_ctrls2.wrPerTurnAround::total        16828                       # Writes before turning the bus around for reads
system.mem_ctrls2.totQLat                 37212135358                       # Total ticks spent queuing
system.mem_ctrls2.totMemAccLat            40828935358                       # Total ticks spent from burst creation until serviced by the DRAM
system.mem_ctrls2.totBusLat                 964480000                       # Total ticks spent in databus transfers
system.mem_ctrls2.avgQLat                   192912.94                       # Average queueing delay per DRAM burst
system.mem_ctrls2.avgBusLat                   5000.00                       # Average bus latency per DRAM burst
system.mem_ctrls2.avgMemAccLat              211662.94                       # Average memory access latency per DRAM burst
system.mem_ctrls2.avgRdBW                      217.58                       # Average DRAM read bandwidth in MiByte/s
system.mem_ctrls2.avgWrBW                      137.60                       # Average achieved write bandwidth in MiByte/s
system.mem_ctrls2.avgRdBWSys                   217.61                       # Average system read bandwidth in MiByte/s
system.mem_ctrls2.avgWrBWSys                   137.61                       # Average system write bandwidth in MiByte/s
system.mem_ctrls2.peakBW                     12800.00                       # Theoretical peak bandwidth in MiByte/s
system.mem_ctrls2.busUtil                        2.77                       # Data bus utilization in percentage
system.mem_ctrls2.busUtilRead                    1.70                       # Data bus utilization in percentage for reads
system.mem_ctrls2.busUtilWrite                   1.08                       # Data bus utilization in percentage for writes
system.mem_ctrls2.avgRdQLen                      1.67                       # Average read queue length when enqueuing
system.mem_ctrls2.avgWrQLen                      2.94                       # Average write queue length when enqueuing
system.mem_ctrls2.readRowHits                  145486                       # Number of row buffer hits during reads
system.mem_ctrls2.writeRowHits                  78208                       # Number of row buffer hits during writes
system.mem_ctrls2.readRowHitRate                75.42                       # Row buffer hit rate for reads
system.mem_ctrls2.writeRowHitRate               64.11                       # Row buffer hit rate for writes
system.mem_ctrls2.avgGap                    180172.79                       # Average gap between requests
system.mem_ctrls2.pageHitRate                   71.04                       # Row buffer hit rate, read and write combined
system.mem_ctrls2.memoryStateTime::IDLE   11875049000                       # Time in different power states
system.mem_ctrls2.memoryStateTime::REF     1894360000                       # Time in different power states
system.mem_ctrls2.memoryStateTime::PRE_PDN            0                       # Time in different power states
system.mem_ctrls2.memoryStateTime::ACT    42961515000                       # Time in different power states
system.mem_ctrls2.memoryStateTime::ACT_PDN            0                       # Time in different power states
system.mem_ctrls2.actEnergy::0              348478200                       # Energy for activate commands per rank (pJ)
system.mem_ctrls2.actEnergy::1              340593120                       # Energy for activate commands per rank (pJ)
system.mem_ctrls2.preEnergy::0              190141875                       # Energy for precharge commands per rank (pJ)
system.mem_ctrls2.preEnergy::1              185839500                       # Energy for precharge commands per rank (pJ)
system.mem_ctrls2.readEnergy::0             752614200                       # Energy for read commands per rank (pJ)
system.mem_ctrls2.readEnergy::1             750952800                       # Energy for read commands per rank (pJ)
system.mem_ctrls2.writeEnergy::0            395118000                       # Energy for write commands per rank (pJ)
system.mem_ctrls2.writeEnergy::1            394981920                       # Energy for write commands per rank (pJ)
system.mem_ctrls2.refreshEnergy::0         3705368160                       # Energy for refresh commands per rank (pJ)
system.mem_ctrls2.refreshEnergy::1         3705368160                       # Energy for refresh commands per rank (pJ)
system.mem_ctrls2.actBackEnergy::0        21839833575                       # Energy for active background per rank (pJ)
system.mem_ctrls2.actBackEnergy::1        21337839990                       # Energy for active background per rank (pJ)
system.mem_ctrls2.preBackEnergy::0        14880797250                       # Energy for precharge background per rank (pJ)
system.mem_ctrls2.preBackEnergy::1        15321142500                       # Energy for precharge background per rank (pJ)
system.mem_ctrls2.totalEnergy::0          42112351260                       # Total energy per rank (pJ)
system.mem_ctrls2.totalEnergy::1          42036717990                       # Total energy per rank (pJ)
system.mem_ctrls2.averagePower::0          742.317570                       # Core power per rank (mW)
system.mem_ctrls2.averagePower::1          740.984377                       # Core power per rank (mW)
system.mem_ctrls3.bytes_read::ruby.dir_cntrl3     12325952                       # Number of bytes read from this memory
system.mem_ctrls3.bytes_read::total          12325952                       # Number of bytes read from this memory
system.mem_ctrls3.bytes_written::ruby.dir_cntrl3      7806016                       # Number of bytes written to this memory
system.mem_ctrls3.bytes_written::total        7806016                       # Number of bytes written to this memory
system.mem_ctrls3.num_reads::ruby.dir_cntrl3       192593                       # Number of read requests responded to by this memory
system.mem_ctrls3.num_reads::total             192593                       # Number of read requests responded to by this memory
system.mem_ctrls3.num_writes::ruby.dir_cntrl3       121969                       # Number of write requests responded to by this memory
system.mem_ctrls3.num_writes::total            121969                       # Number of write requests responded to by this memory
system.mem_ctrls3.bw_read::ruby.dir_cntrl3    217241849                       # Total read bandwidth from this memory (bytes/s)
system.mem_ctrls3.bw_read::total            217241849                       # Total read bandwidth from this memory (bytes/s)
system.mem_ctrls3.bw_write::ruby.dir_cntrl3    137579097                       # Write bandwidth from this memory (bytes/s)
system.mem_ctrls3.bw_write::total           137579097                       # Write bandwidth from this memory (bytes/s)
system.mem_ctrls3.bw_total::ruby.dir_cntrl3    354820946                       # Total bandwidth to/from this memory (bytes/s)
system.mem_ctrls3.bw_total::total           354820946                       # Total bandwidth to/from this memory (bytes/s)
system.mem_ctrls3.readReqs                     192593                       # Number of read requests accepted
system.mem_ctrls3.writeReqs                    121969                       # Number of write requests accepted
system.mem_ctrls3.readBursts                   192593                       # Number of DRAM read bursts, including those serviced by the write queue
system.mem_ctrls3.writeBursts                  121969                       # Number of DRAM write bursts, including those merged in the write queue
system.mem_ctrls3.bytesReadDRAM              12325056                       # Total number of bytes read from DRAM
system.mem_ctrls3.bytesReadWrQ                    896                       # Total number of bytes read from write queue
system.mem_ctrls3.bytesWritten                7806016                       # Total number of bytes written to DRAM
system.mem_ctrls3.bytesReadSys               12325952                       # Total read bytes from the system interface side
system.mem_ctrls3.bytesWrittenSys             7806016                       # Total written bytes from the system interface side
system.mem_ctrls3.servicedByWrQ                    14                       # Number of DRAM read bursts serviced by the write queue
system.mem_ctrls3.mergedWrBursts                    0                       # Number of DRAM write bursts merged with an existing one
system.mem_ctrls3.neitherReadNorWriteReqs            0                       # Number of requests that are neither read nor write
system.mem_ctrls3.perBankRdBursts::0            11827                       # Per bank write bursts
system.mem_ctrls3.perBankRdBursts::1            11983                       # Per bank write bursts
system.mem_ctrls3.perBankRdBursts::2            11698                       # Per bank write bursts
system.mem_ctrls3.perBankRdBursts::3            12198                       # Per bank write bursts
system.mem_ctrls3.perBankRdBursts::4            11902                       # Per bank write bursts
system.mem_ctrls3.perBankRdBursts::5            11985                       # Per bank write bursts
system.mem_ctrls3.perBankRdBursts::6            12309                       # Per bank write bursts
system.mem_ctrls3.perBankRdBursts::7            12383                       # Per bank write bursts
system.mem_ctrls3.perBankRdBursts::8            12089                       # Per bank write bursts
system.mem_ctrls3.perBankRdBursts::9            12524                       # Per bank write bursts
system.mem_ctrls3.perBankRdBursts::10           12152                       # Per bank write bursts
system.mem_ctrls3.perBankRdBursts::11           12450                       # Per bank write bursts
system.mem_ctrls3.perBankRdBursts::12           11930                       # Per bank write bursts
system.mem_ctrls3.perBankRdBursts::13           11659                       # Per bank write bursts
system.mem_ctrls3.perBankRdBursts::14           11896                       # Per bank write bursts
system.mem_ctrls3.perBankRdBursts::15           11594                       # Per bank write bursts
system.mem_ctrls3.perBankWrBursts::0             7559                       # Per bank write bursts
system.mem_ctrls3.perBankWrBursts::1             7429                       # Per bank write bursts
system.mem_ctrls3.perBankWrBursts::2             7583                       # Per bank write bursts
system.mem_ctrls3.perBankWrBursts::3             7626                       # Per bank write bursts
system.mem_ctrls3.perBankWrBursts::4             7597                       # Per bank write bursts
system.mem_ctrls3.perBankWrBursts::5             7696                       # Per bank write bursts
system.mem_ctrls3.perBankWrBursts::6             7704                       # Per bank write bursts
system.mem_ctrls3.perBankWrBursts::7             7806                       # Per bank write bursts
system.mem_ctrls3.perBankWrBursts::8             7720                       # Per bank write bursts
system.mem_ctrls3.perBankWrBursts::9             7828                       # Per bank write bursts
system.mem_ctrls3.perBankWrBursts::10            7644                       # Per bank write bursts
system.mem_ctrls3.perBankWrBursts::11            7681                       # Per bank write bursts
system.mem_ctrls3.perBankWrBursts::12            7527                       # Per bank write bursts
system.mem_ctrls3.perBankWrBursts::13            7541                       # Per bank write bursts
system.mem_ctrls3.perBankWrBursts::14            7647                       # Per bank write bursts
system.mem_ctrls3.perBankWrBursts::15            7381                       # Per bank write bursts
system.mem_ctrls3.numRdRetry                   100225                       # Number of times read queue was full causing retry
system.mem_ctrls3.numWrRetry                     7190                       # Number of times write queue was full causing retry
system.mem_ctrls3.totGap                  56737285500                       # Total gap between requests
system.mem_ctrls3.readPktSize::0                    0                       # Read request sizes (log2)
system.mem_ctrls3.readPktSize::1                    0                       # Read request sizes (log2)
system.mem_ctrls3.readPktSize::2                    0                       # Read request sizes (log2)
system.mem_ctrls3.readPktSize::3                    0                       # Read request sizes (log2)
system.mem_ctrls3.readPktSize::4                    0                       # Read request sizes (log2)
system.mem_ctrls3.readPktSize::5                    0                       # Read request sizes (log2)
system.mem_ctrls3.readPktSize::6               192593                       # Read request sizes (log2)
system.mem_ctrls3.writePktSize::0                   0                       # Write request sizes (log2)
system.mem_ctrls3.writePktSize::1                   0                       # Write request sizes (log2)
system.mem_ctrls3.writePktSize::2                   0                       # Write request sizes (log2)
system.mem_ctrls3.writePktSize::3                   0                       # Write request sizes (log2)
system.mem_ctrls3.writePktSize::4                   0                       # Write request sizes (log2)
system.mem_ctrls3.writePktSize::5                   0                       # Write request sizes (log2)
system.mem_ctrls3.writePktSize::6              121969                       # Write request sizes (log2)
system.mem_ctrls3.rdQLenPdf::0                  67033                       # What read queue length does an incoming req see
system.mem_ctrls3.rdQLenPdf::1                   1223                       # What read queue length does an incoming req see
system.mem_ctrls3.rdQLenPdf::2                    831                       # What read queue length does an incoming req see
system.mem_ctrls3.rdQLenPdf::3                    796                       # What read queue length does an incoming req see
system.mem_ctrls3.rdQLenPdf::4                    791                       # What read queue length does an incoming req see
system.mem_ctrls3.rdQLenPdf::5                    786                       # What read queue length does an incoming req see
system.mem_ctrls3.rdQLenPdf::6                    816                       # What read queue length does an incoming req see
system.mem_ctrls3.rdQLenPdf::7                    800                       # What read queue length does an incoming req see
system.mem_ctrls3.rdQLenPdf::8                    754                       # What read queue length does an incoming req see
system.mem_ctrls3.rdQLenPdf::9                    726                       # What read queue length does an incoming req see
system.mem_ctrls3.rdQLenPdf::10                   732                       # What read queue length does an incoming req see
system.mem_ctrls3.rdQLenPdf::11                   702                       # What read queue length does an incoming req see
system.mem_ctrls3.rdQLenPdf::12                   709                       # What read queue length does an incoming req see
system.mem_ctrls3.rdQLenPdf::13                   708                       # What read queue length does an incoming req see
system.mem_ctrls3.rdQLenPdf::14                   739                       # What read queue length does an incoming req see
system.mem_ctrls3.rdQLenPdf::15                   731                       # What read queue length does an incoming req see
system.mem_ctrls3.rdQLenPdf::16                   703                       # What read queue length does an incoming req see
system.mem_ctrls3.rdQLenPdf::17                   724                       # What read queue length does an incoming req see
system.mem_ctrls3.rdQLenPdf::18                   703                       # What read queue length does an incoming req see
system.mem_ctrls3.rdQLenPdf::19                   731                       # What read queue length does an incoming req see
system.mem_ctrls3.rdQLenPdf::20                   684                       # What read queue length does an incoming req see
system.mem_ctrls3.rdQLenPdf::21                   675                       # What read queue length does an incoming req see
system.mem_ctrls3.rdQLenPdf::22                   671                       # What read queue length does an incoming req see
system.mem_ctrls3.rdQLenPdf::23                   664                       # What read queue length does an incoming req see
system.mem_ctrls3.rdQLenPdf::24                   687                       # What read queue length does an incoming req see
[...]
system.ruby.L2Cache_Controller.IM.L1_GETX::total            1                      
system.ruby.L2Cache_Controller.IM.Mem_Data |       14999      3.15%      3.15% |       14870      3.12%      6.27% |       14877      3.12%      9.39% |       14880      3.12%     12.52% |       14869      3.12%     15.64% |       14877      3.12%     18.76% |       14882      3.12%     21.89% |       14870      3.12%     25.01% |       14881      3.12%     28.13% |       14884      3.12%     31.26% |       14867      3.12%     34.38% |       14888      3.13%     37.50% |       14874      3.12%     40.63% |       14878      3.12%     43.75% |       14873      3.12%     46.87% |       14868      3.12%     49.99% |       14924      3.13%     53.13% |       14884      3.12%     56.25% |       14884      3.12%     59.38% |       14886      3.13%     62.50% |       14903      3.13%     65.63% |       14908      3.13%     68.76% |       14875      3.12%     71.88% |       14887      3.13%     75.01% |       14897      3.13%     78.13% |       14888      3.13%     81.26% |       14888      3.13%     84.39% |       14879      3.12%     87.51% |       14874      3.12%     90.63% |       14873      3.12%     93.75% |       14883      3.12%     96.88% |       14870      3.12%    100.00%
system.ruby.L2Cache_Controller.IM.Mem_Data::total       476340                      
system.ruby.L2Cache_Controller.SS_MB.Exclusive_Unblock |           3      6.12%      6.12% |           6     12.24%     18.37% |           2      4.08%     22.45% |           3      6.12%     28.57% |           0      0.00%     28.57% |           0      0.00%     28.57% |           0      0.00%     28.57% |           0      0.00%     28.57% |           1      2.04%     30.61% |           0      0.00%     30.61% |           0      0.00%     30.61% |           1      2.04%     32.65% |           4      8.16%     40.82% |           0      0.00%     40.82% |           2      4.08%     44.90% |           0      0.00%     44.90% |           1      2.04%     46.94% |           2      4.08%     51.02% |          13     26.53%     77.55% |           3      6.12%     83.67% |           0      0.00%     83.67% |           0      0.00%     83.67% |           0      0.00%     83.67% |           0      0.00%     83.67% |           1      2.04%     85.71% |           0      0.00%     85.71% |           3      6.12%     91.84% |           4      8.16%    100.00% |           0      0.00%    100.00% |           0      0.00%    100.00% |           0      0.00%    100.00% |           0      0.00%    100.00%
system.ruby.L2Cache_Controller.SS_MB.Exclusive_Unblock::total           49                      
system.ruby.L2Cache_Controller.MT_MB.L1_GETS |           0      0.00%      0.00% |           0      0.00%      0.00% |           0      0.00%      0.00% |           1    100.00%    100.00% |           0      0.00%    100.00% |           0      0.00%    100.00% |           0      0.00%    100.00% |           0      0.00%    100.00% |           0      0.00%    100.00% |           0      0.00%    100.00% |           0      0.00%    100.00% |           0      0.00%    100.00% |           0      0.00%    100.00% |           0      0.00%    100.00% |           0      0.00%    100.00% |           0      0.00%    100.00% |           0      0.00%    100.00% |           0      0.00%    100.00% |           0      0.00%    100.00% |           0      0.00%    100.00% |           0      0.00%    100.00% |           0      0.00%    100.00% |           0      0.00%    100.00% |           0      0.00%    100.00% |           0      0.00%    100.00% |           0      0.00%    100.00% |           0      0.00%    100.00% |           0      0.00%    100.00% |           0      0.00%    100.00% |           0      0.00%    100.00% |           0      0.00%    100.00% |           0      0.00%    100.00%
system.ruby.L2Cache_Controller.MT_MB.L1_GETS::total            1                      
system.ruby.L2Cache_Controller.MT_MB.Exclusive_Unblock |       75928      7.22%      7.22% |       32855      3.13%     10.35% |       29479      2.80%     13.16% |       32390      3.08%     16.24% |       29774      2.83%     19.07% |       29674      2.82%     21.89% |       29095      2.77%     24.66% |       29692      2.83%     27.49% |       30397      2.89%     30.38% |       29991      2.85%     33.23% |       32547      3.10%     36.33% |       30861      2.94%     39.27% |       30526      2.90%     42.17% |       30301      2.88%     45.05% |       29592      2.82%     47.87% |       30189      2.87%     50.74% |       31504      3.00%     53.74% |       30311      2.88%     56.62% |       30941      2.94%     59.57% |       31634      3.01%     62.58% |       32115      3.06%     65.63% |       37024      3.52%     69.15% |       31261      2.97%     72.13% |       31246      2.97%     75.10% |       31264      2.97%     78.08% |       31241      2.97%     81.05% |       31175      2.97%     84.02% |       30877      2.94%     86.95% |       32692      3.11%     90.06% |       32156      3.06%     93.12% |       34152      3.25%     96.37% |       38127      3.63%    100.00%
system.ruby.L2Cache_Controller.MT_MB.Exclusive_Unblock::total      1051011                      
system.ruby.L2Cache_Controller.MT_IIB.L1_PUTX |           1    100.00%    100.00% |           0      0.00%    100.00% |           0      0.00%    100.00% |           0      0.00%    100.00% |           0      0.00%    100.00% |           0      0.00%    100.00% |           0      0.00%    100.00% |           0      0.00%    100.00% |           0      0.00%    100.00% |           0      0.00%    100.00% |           0      0.00%    100.00% |           0      0.00%    100.00% |           0      0.00%    100.00% |           0      0.00%    100.00% |           0      0.00%    100.00% |           0      0.00%    100.00% |           0      0.00%    100.00% |           0      0.00%    100.00% |           0      0.00%    100.00% |           0      0.00%    100.00% |           0      0.00%    100.00% |           0      0.00%    100.00% |           0      0.00%    100.00% |           0      0.00%    100.00% |           0      0.00%    100.00% |           0      0.00%    100.00% |           0      0.00%    100.00% |           0      0.00%    100.00% |           0      0.00%    100.00% |           0      0.00%    100.00% |           0      0.00%    100.00% |           0      0.00%    100.00%
system.ruby.L2Cache_Controller.MT_IIB.L1_PUTX::total            1                      
system.ruby.L2Cache_Controller.MT_IIB.WB_Data |           2      2.38%      2.38% |           2      2.38%      4.76% |           1      1.19%      5.95% |           3      3.57%      9.52% |           3      3.57%     13.10% |           3      3.57%     16.67% |           4      4.76%     21.43% |           2      2.38%     23.81% |           5      5.95%     29.76% |           3      3.57%     33.33% |           2      2.38%     35.71% |           2      2.38%     38.10% |           3      3.57%     41.67% |           3      3.57%     45.24% |           4      4.76%     50.00% |           3      3.57%     53.57% |           7      8.33%     61.90% |           1      1.19%     63.10% |           2      2.38%     65.48% |           0      0.00%     65.48% |           1      1.19%     66.67% |           0      0.00%     66.67% |           1      1.19%     67.86% |           2      2.38%     70.24% |           3      3.57%     73.81% |           4      4.76%     78.57% |           4      4.76%     83.33% |           5      5.95%     89.29% |           3      3.57%     92.86% |           2      2.38%     95.24% |           2      2.38%     97.62% |           2      2.38%    100.00%
system.ruby.L2Cache_Controller.MT_IIB.WB_Data::total           84                      
system.ruby.L2Cache_Controller.MT_IIB.WB_Data_clean |          12     25.00%     25.00% |           0      0.00%     25.00% |           0      0.00%     25.00% |          15     31.25%     56.25% |           0      0.00%     56.25% |           0      0.00%     56.25% |           0      0.00%     56.25% |           0      0.00%     56.25% |           0      0.00%     56.25% |           0      0.00%     56.25% |           0      0.00%     56.25% |           0      0.00%     56.25% |           0      0.00%     56.25% |           0      0.00%     56.25% |           0      0.00%     56.25% |           0      0.00%     56.25% |           5     10.42%     66.67% |           0      0.00%     66.67% |           0      0.00%     66.67% |          14     29.17%     95.83% |           0      0.00%     95.83% |           0      0.00%     95.83% |           0      0.00%     95.83% |           0      0.00%     95.83% |           0      0.00%     95.83% |           0      0.00%     95.83% |           0      0.00%     95.83% |           2      4.17%    100.00% |           0      0.00%    100.00% |           0      0.00%    100.00% |           0      0.00%    100.00% |           0      0.00%    100.00%
system.ruby.L2Cache_Controller.MT_IIB.WB_Data_clean::total           48                      
system.ruby.L2Cache_Controller.MT_IIB.Unblock |           0      0.00%      0.00% |           0      0.00%      0.00% |           0      0.00%      0.00% |           0      0.00%      0.00% |           0      0.00%      0.00% |           0      0.00%      0.00% |           0      0.00%      0.00% |           1     33.33%     33.33% |           0      0.00%     33.33% |           0      0.00%     33.33% |           0      0.00%     33.33% |           0      0.00%     33.33% |           0      0.00%     33.33% |           0      0.00%     33.33% |           0      0.00%     33.33% |           0      0.00%     33.33% |           1     33.33%     66.67% |           0      0.00%     66.67% |           0      0.00%     66.67% |           0      0.00%     66.67% |           0      0.00%     66.67% |           0      0.00%     66.67% |           0      0.00%     66.67% |           0      0.00%     66.67% |           0      0.00%     66.67% |           1     33.33%    100.00% |           0      0.00%    100.00% |           0      0.00%    100.00% |           0      0.00%    100.00% |           0      0.00%    100.00% |           0      0.00%    100.00% |           0      0.00%    100.00%
system.ruby.L2Cache_Controller.MT_IIB.Unblock::total            3                      
system.ruby.L2Cache_Controller.MT_IB.WB_Data |           0      0.00%      0.00% |           0      0.00%      0.00% |           0      0.00%      0.00% |           0      0.00%      0.00% |           0      0.00%      0.00% |           0      0.00%      0.00% |           0      0.00%      0.00% |           1     50.00%     50.00% |           0      0.00%     50.00% |           0      0.00%     50.00% |           0      0.00%     50.00% |           0      0.00%     50.00% |           0      0.00%     50.00% |           0      0.00%     50.00% |           0      0.00%     50.00% |           0      0.00%     50.00% |           0      0.00%     50.00% |           0      0.00%     50.00% |           0      0.00%     50.00% |           0      0.00%     50.00% |           0      0.00%     50.00% |           0      0.00%     50.00% |           0      0.00%     50.00% |           0      0.00%     50.00% |           0      0.00%     50.00% |           1     50.00%    100.00% |           0      0.00%    100.00% |           0      0.00%    100.00% |           0      0.00%    100.00% |           0      0.00%    100.00% |           0      0.00%    100.00% |           0      0.00%    100.00%
system.ruby.L2Cache_Controller.MT_IB.WB_Data::total            2                      
system.ruby.L2Cache_Controller.MT_IB.WB_Data_clean |           0      0.00%      0.00% |           0      0.00%      0.00% |           0      0.00%      0.00% |           0      0.00%      0.00% |           0      0.00%      0.00% |           0      0.00%      0.00% |           0      0.00%      0.00% |           0      0.00%      0.00% |           0      0.00%      0.00% |           0      0.00%      0.00% |           0      0.00%      0.00% |           0      0.00%      0.00% |           0      0.00%      0.00% |           0      0.00%      0.00% |           0      0.00%      0.00% |           0      0.00%      0.00% |           1    100.00%    100.00% |           0      0.00%    100.00% |           0      0.00%    100.00% |           0      0.00%    100.00% |           0      0.00%    100.00% |           0      0.00%    100.00% |           0      0.00%    100.00% |           0      0.00%    100.00% |           0      0.00%    100.00% |           0      0.00%    100.00% |           0      0.00%    100.00% |           0      0.00%    100.00% |           0      0.00%    100.00% |           0      0.00%    100.00% |           0      0.00%    100.00% |           0      0.00%    100.00%
system.ruby.L2Cache_Controller.MT_IB.WB_Data_clean::total            1                      
system.ruby.L2Cache_Controller.MT_SB.Unblock |          14     10.61%     10.61% |           2      1.52%     12.12% |           1      0.76%     12.88% |          18     13.64%     26.52% |           3      2.27%     28.79% |           3      2.27%     31.06% |           4      3.03%     34.09% |           2      1.52%     35.61% |           5      3.79%     39.39% |           3      2.27%     41.67% |           2      1.52%     43.18% |           2      1.52%     44.70% |           3      2.27%     46.97% |           3      2.27%     49.24% |           4      3.03%     52.27% |           3      2.27%     54.55% |          12      9.09%     63.64% |           1      0.76%     64.39% |           2      1.52%     65.91% |          14     10.61%     76.52% |           1      0.76%     77.27% |           0      0.00%     77.27% |           1      0.76%     78.03% |           2      1.52%     79.55% |           3      2.27%     81.82% |           4      3.03%     84.85% |           4      3.03%     87.88% |           7      5.30%     93.18% |           3      2.27%     95.45% |           2      1.52%     96.97% |           2      1.52%     98.48% |           2      1.52%    100.00%
system.ruby.L2Cache_Controller.MT_SB.Unblock::total          132                      
system.ruby.SimicsNetworkPortInterface_Controller.MessageSend |       62648     16.98%     16.98% |      184524     50.00%     66.98% |        7851      2.13%     69.10% |        8168      2.21%     71.32% |        7687      2.08%     73.40% |        8437      2.29%     75.69% |        7798      2.11%     77.80% |        8164      2.21%     80.01% |        7122      1.93%     81.94% |        7564      2.05%     83.99% |        7106      1.93%     85.92% |        7465      2.02%     87.94% |        7667      2.08%     90.02% |        7441      2.02%     92.03% |        6923      1.88%     93.91% |        7248      1.96%     95.87% |        7300      1.98%     97.85% |        7935      2.15%    100.00% |           0      0.00%    100.00% |           0      0.00%    100.00% |           0      0.00%    100.00% |           0      0.00%    100.00% |           0      0.00%    100.00% |           0      0.00%    100.00% |           0      0.00%    100.00% |           0      0.00%    100.00% |           0      0.00%    100.00% |           0      0.00%    100.00% |           0      0.00%    100.00% |           0      0.00%    100.00% |           0      0.00%    100.00% |           0      0.00%    100.00%
system.ruby.SimicsNetworkPortInterface_Controller.MessageSend::total       369048                      
system.ruby.SimicsNetworkPortInterface_Controller.MessageRecv |       62648     16.98%     16.98% |      184524     50.00%     66.98% |        7851      2.13%     69.10% |        8168      2.21%     71.32% |        7687      2.08%     73.40% |        8437      2.29%     75.69% |        7798      2.11%     77.80% |        8164      2.21%     80.01% |        7122      1.93%     81.94% |        7564      2.05%     83.99% |        7106      1.93%     85.92% |        7465      2.02%     87.94% |        7667      2.08%     90.02% |        7441      2.02%     92.03% |        6923      1.88%     93.91% |        7248      1.96%     95.87% |        7300      1.98%     97.85% |        7935      2.15%    100.00% |           0      0.00%    100.00% |           0      0.00%    100.00% |           0      0.00%    100.00% |           0      0.00%    100.00% |           0      0.00%    100.00% |           0      0.00%    100.00% |           0      0.00%    100.00% |           0      0.00%    100.00% |           0      0.00%    100.00% |           0      0.00%    100.00% |           0      0.00%    100.00% |           0      0.00%    100.00% |           0      0.00%    100.00% |           0      0.00%    100.00%
system.ruby.SimicsNetworkPortInterface_Controller.MessageRecv::total       369048                      
system.ruby.SimicsNetworkPortInterface_Controller.A.MessageSend |       62648     16.98%     16.98% |      184524     50.00%     66.98% |        7851      2.13%     69.10% |        8168      2.21%     71.32% |        7687      2.08%     73.40% |        8437      2.29%     75.69% |        7798      2.11%     77.80% |        8164      2.21%     80.01% |        7122      1.93%     81.94% |        7564      2.05%     83.99% |        7106      1.93%     85.92% |        7465      2.02%     87.94% |        7667      2.08%     90.02% |        7441      2.02%     92.03% |        6923      1.88%     93.91% |        7248      1.96%     95.87% |        7300      1.98%     97.85% |        7935      2.15%    100.00% |           0      0.00%    100.00% |           0      0.00%    100.00% |           0      0.00%    100.00% |           0      0.00%    100.00% |           0      0.00%    100.00% |           0      0.00%    100.00% |           0      0.00%    100.00% |           0      0.00%    100.00% |           0      0.00%    100.00% |           0      0.00%    100.00% |           0      0.00%    100.00% |           0      0.00%    100.00% |           0      0.00%    100.00% |           0      0.00%    100.00%
system.ruby.SimicsNetworkPortInterface_Controller.A.MessageSend::total       369048                      
system.ruby.SimicsNetworkPortInterface_Controller.A.MessageRecv |       62648     16.98%     16.98% |      184524     50.00%     66.98% |        7851      2.13%     69.10% |        8168      2.21%     71.32% |        7687      2.08%     73.40% |        8437      2.29%     75.69% |        7798      2.11%     77.80% |        8164      2.21%     80.01% |        7122      1.93%     81.94% |        7564      2.05%     83.99% |        7106      1.93%     85.92% |        7465      2.02%     87.94% |        7667      2.08%     90.02% |        7441      2.02%     92.03% |        6923      1.88%     93.91% |        7248      1.96%     95.87% |        7300      1.98%     97.85% |        7935      2.15%    100.00% |           0      0.00%    100.00% |           0      0.00%    100.00% |           0      0.00%    100.00% |           0      0.00%    100.00% |           0      0.00%    100.00% |           0      0.00%    100.00% |           0      0.00%    100.00% |           0      0.00%    100.00% |           0      0.00%    100.00% |           0      0.00%    100.00% |           0      0.00%    100.00% |           0      0.00%    100.00% |           0      0.00%    100.00% |           0      0.00%    100.00%
system.ruby.SimicsNetworkPortInterface_Controller.A.MessageRecv::total       369048                      
system.switch_cpus.kern.inst.arm                    0                       # number of arm instructions executed
system.switch_cpus.kern.inst.quiesce                0                       # number of quiesce instructions executed

---------- End Simulation Statistics   ----------
