
---------- Begin Simulation Statistics ----------
sim_seconds                                  0.153818                       # Number of seconds simulated
sim_ticks                                153817922500                       # Number of ticks simulated
final_tick                               5329986001000                       # Number of ticks from beginning of simulation (restored from checkpoints and never reset)
sim_freq                                 1000000000000                       # Frequency of simulated ticks
host_inst_rate                                  40673                       # Simulator instruction rate (inst/s)
host_op_rate                                    77444                       # Simulator op (including micro ops) rate (op/s)
host_tick_rate                               96893310                       # Simulator tick rate (ticks/s)
host_mem_usage                                4031972                       # Number of bytes of host memory used
host_seconds                                  1587.50                       # Real time elapsed on the host
sim_insts                                    64568174                       # Number of instructions simulated
sim_ops                                     122942637                       # Number of ops (including micro ops) simulated
system.voltage_domain.voltage                       1                       # Voltage in Volts
system.clk_domain.clock                           500                       # Clock period in ticks
system.mem_ctrls0.bytes_read::ruby.dir_cntrl0     25268608                       # Number of bytes read from this memory
system.mem_ctrls0.bytes_read::total          25268608                       # Number of bytes read from this memory
system.mem_ctrls0.bytes_written::ruby.dir_cntrl0     21423424                       # Number of bytes written to this memory
system.mem_ctrls0.bytes_written::total       21423424                       # Number of bytes written to this memory
system.mem_ctrls0.num_reads::ruby.dir_cntrl0       394822                       # Number of read requests responded to by this memory
system.mem_ctrls0.num_reads::total             394822                       # Number of read requests responded to by this memory
system.mem_ctrls0.num_writes::ruby.dir_cntrl0       334741                       # Number of write requests responded to by this memory
system.mem_ctrls0.num_writes::total            334741                       # Number of write requests responded to by this memory
system.mem_ctrls0.bw_read::ruby.dir_cntrl0    164276097                       # Total read bandwidth from this memory (bytes/s)
system.mem_ctrls0.bw_read::total            164276097                       # Total read bandwidth from this memory (bytes/s)
system.mem_ctrls0.bw_write::ruby.dir_cntrl0    139277814                       # Write bandwidth from this memory (bytes/s)
system.mem_ctrls0.bw_write::total           139277814                       # Write bandwidth from this memory (bytes/s)
system.mem_ctrls0.bw_total::ruby.dir_cntrl0    303553911                       # Total bandwidth to/from this memory (bytes/s)
system.mem_ctrls0.bw_total::total           303553911                       # Total bandwidth to/from this memory (bytes/s)
system.mem_ctrls0.readReqs                     394823                       # Number of read requests accepted
system.mem_ctrls0.writeReqs                    334741                       # Number of write requests accepted
system.mem_ctrls0.readBursts                   394823                       # Number of DRAM read bursts, including those serviced by the write queue
system.mem_ctrls0.writeBursts                  334741                       # Number of DRAM write bursts, including those merged in the write queue
system.mem_ctrls0.bytesReadDRAM              25267712                       # Total number of bytes read from DRAM
system.mem_ctrls0.bytesReadWrQ                    960                       # Total number of bytes read from write queue
system.mem_ctrls0.bytesWritten               21423232                       # Total number of bytes written to DRAM
system.mem_ctrls0.bytesReadSys               25268672                       # Total read bytes from the system interface side
system.mem_ctrls0.bytesWrittenSys            21423424                       # Total written bytes from the system interface side
system.mem_ctrls0.servicedByWrQ                    15                       # Number of DRAM read bursts serviced by the write queue
system.mem_ctrls0.mergedWrBursts                    0                       # Number of DRAM write bursts merged with an existing one
system.mem_ctrls0.neitherReadNorWriteReqs            0                       # Number of requests that are neither read nor write
system.mem_ctrls0.perBankRdBursts::0            24364                       # Per bank write bursts
system.mem_ctrls0.perBankRdBursts::1            25075                       # Per bank write bursts
system.mem_ctrls0.perBankRdBursts::2            24637                       # Per bank write bursts
system.mem_ctrls0.perBankRdBursts::3            24951                       # Per bank write bursts
system.mem_ctrls0.perBankRdBursts::4            24585                       # Per bank write bursts
system.mem_ctrls0.perBankRdBursts::5            24929                       # Per bank write bursts
system.mem_ctrls0.perBankRdBursts::6            24974                       # Per bank write bursts
system.mem_ctrls0.perBankRdBursts::7            24750                       # Per bank write bursts
system.mem_ctrls0.perBankRdBursts::8            24653                       # Per bank write bursts
system.mem_ctrls0.perBankRdBursts::9            24785                       # Per bank write bursts
system.mem_ctrls0.perBankRdBursts::10           24576                       # Per bank write bursts
system.mem_ctrls0.perBankRdBursts::11           25074                       # Per bank write bursts
system.mem_ctrls0.perBankRdBursts::12           24326                       # Per bank write bursts
system.mem_ctrls0.perBankRdBursts::13           24246                       # Per bank write bursts
system.mem_ctrls0.perBankRdBursts::14           24412                       # Per bank write bursts
system.mem_ctrls0.perBankRdBursts::15           24471                       # Per bank write bursts
system.mem_ctrls0.perBankWrBursts::0            20946                       # Per bank write bursts
system.mem_ctrls0.perBankWrBursts::1            20817                       # Per bank write bursts
system.mem_ctrls0.perBankWrBursts::2            20854                       # Per bank write bursts
system.mem_ctrls0.perBankWrBursts::3            21127                       # Per bank write bursts
system.mem_ctrls0.perBankWrBursts::4            20746                       # Per bank write bursts
system.mem_ctrls0.perBankWrBursts::5            21064                       # Per bank write bursts
system.mem_ctrls0.perBankWrBursts::6            21079                       # Per bank write bursts
system.mem_ctrls0.perBankWrBursts::7            21050                       # Per bank write bursts
system.mem_ctrls0.perBankWrBursts::8            21118                       # Per bank write bursts
system.mem_ctrls0.perBankWrBursts::9            20940                       # Per bank write bursts
system.mem_ctrls0.perBankWrBursts::10           20843                       # Per bank write bursts
system.mem_ctrls0.perBankWrBursts::11           20871                       # Per bank write bursts
system.mem_ctrls0.perBankWrBursts::12           20658                       # Per bank write bursts
system.mem_ctrls0.perBankWrBursts::13           20905                       # Per bank write bursts
system.mem_ctrls0.perBankWrBursts::14           20935                       # Per bank write bursts
system.mem_ctrls0.perBankWrBursts::15           20785                       # Per bank write bursts
system.mem_ctrls0.numRdRetry                   136617                       # Number of times read queue was full causing retry
system.mem_ctrls0.numWrRetry                    16254                       # Number of times write queue was full causing retry
system.mem_ctrls0.totGap                 153817659000                       # Total gap between requests
system.mem_ctrls0.readPktSize::0                    0                       # Read request sizes (log2)
system.mem_ctrls0.readPktSize::1                    0                       # Read request sizes (log2)
system.mem_ctrls0.readPktSize::2                    0                       # Read request sizes (log2)
system.mem_ctrls0.readPktSize::3                    0                       # Read request sizes (log2)
system.mem_ctrls0.readPktSize::4                    0                       # Read request sizes (log2)
system.mem_ctrls0.readPktSize::5                    0                       # Read request sizes (log2)
system.mem_ctrls0.readPktSize::6               394823                       # Read request sizes (log2)
system.mem_ctrls0.writePktSize::0                   0                       # Write request sizes (log2)
system.mem_ctrls0.writePktSize::1                   0                       # Write request sizes (log2)
system.mem_ctrls0.writePktSize::2                   0                       # Write request sizes (log2)
system.mem_ctrls0.writePktSize::3                   0                       # Write request sizes (log2)
system.mem_ctrls0.writePktSize::4                   0                       # Write request sizes (log2)
system.mem_ctrls0.writePktSize::5                   0                       # Write request sizes (log2)
system.mem_ctrls0.writePktSize::6              334741                       # Write request sizes (log2)
system.mem_ctrls0.rdQLenPdf::0                 204653                       # What read queue length does an incoming req see
system.mem_ctrls0.rdQLenPdf::1                   5834                       # What read queue length does an incoming req see
system.mem_ctrls0.rdQLenPdf::2                   3193                       # What read queue length does an incoming req see
system.mem_ctrls0.rdQLenPdf::3                    722                       # What read queue length does an incoming req see
system.mem_ctrls0.rdQLenPdf::4                    876                       # What read queue length does an incoming req see
system.mem_ctrls0.rdQLenPdf::5                   1019                       # What read queue length does an incoming req see
system.mem_ctrls0.rdQLenPdf::6                   1077                       # What read queue length does an incoming req see
system.mem_ctrls0.rdQLenPdf::7                   1052                       # What read queue length does an incoming req see
system.mem_ctrls0.rdQLenPdf::8                   1168                       # What read queue length does an incoming req see
system.mem_ctrls0.rdQLenPdf::9                   1170                       # What read queue length does an incoming req see
system.mem_ctrls0.rdQLenPdf::10                  1123                       # What read queue length does an incoming req see
system.mem_ctrls0.rdQLenPdf::11                  1107                       # What read queue length does an incoming req see
system.mem_ctrls0.rdQLenPdf::12                  1104                       # What read queue length does an incoming req see
system.mem_ctrls0.rdQLenPdf::13                  1124                       # What read queue length does an incoming req see
system.mem_ctrls0.rdQLenPdf::14                  1200                       # What read queue length does an incoming req see
system.mem_ctrls0.rdQLenPdf::15                  1178                       # What read queue length does an incoming req see
system.mem_ctrls0.rdQLenPdf::16                  1226                       # What read queue length does an incoming req see
system.mem_ctrls0.rdQLenPdf::17                  1256                       # What read queue length does an incoming req see
system.mem_ctrls0.rdQLenPdf::18                  1223                       # What read queue length does an incoming req see
system.mem_ctrls0.rdQLenPdf::19                  1272                       # What read queue length does an incoming req see
system.mem_ctrls0.rdQLenPdf::20                  1385                       # What read queue length does an incoming req see
system.mem_ctrls0.rdQLenPdf::21                  1440                       # What read queue length does an incoming req see
system.mem_ctrls0.rdQLenPdf::22                  1402                       # What read queue length does an incoming req see
system.mem_ctrls0.rdQLenPdf::23                  1456                       # What read queue length does an incoming req see
system.mem_ctrls0.rdQLenPdf::24                  1510                       # What read queue length does an incoming req see
system.mem_ctrls0.rdQLenPdf::25                  1641                       # What read queue length does an incoming req see
system.mem_ctrls0.rdQLenPdf::26                  1692                       # What read queue length does an incoming req see
system.mem_ctrls0.rdQLenPdf::27                  1927                       # What read queue length does an incoming req see
system.mem_ctrls0.rdQLenPdf::28                  2137                       # What read queue length does an incoming req see
system.mem_ctrls0.rdQLenPdf::29                  2389                       # What read queue length does an incoming req see
system.mem_ctrls0.rdQLenPdf::30                  3107                       # What read queue length does an incoming req see
system.mem_ctrls0.rdQLenPdf::31                142145                       # What read queue length does an incoming req see
system.mem_ctrls0.wrQLenPdf::0                  48473                       # What write queue length does an incoming req see
system.mem_ctrls0.wrQLenPdf::1                  50971                       # What write queue length does an incoming req see
system.mem_ctrls0.wrQLenPdf::2                  52330                       # What write queue length does an incoming req see
system.mem_ctrls0.wrQLenPdf::3                  52735                       # What write queue length does an incoming req see
system.mem_ctrls0.wrQLenPdf::4                  53882                       # What write queue length does an incoming req see
system.mem_ctrls0.wrQLenPdf::5                  16573                       # What write queue length does an incoming req see
system.mem_ctrls0.wrQLenPdf::6                  22241                       # What write queue length does an incoming req see
system.mem_ctrls0.wrQLenPdf::7                  37536                       # What write queue length does an incoming req see
system.mem_ctrls0.bytesPerActivate::samples       215424                       # Bytes accessed per row activation
system.mem_ctrls0.bytesPerActivate::mean   216.739453                       # Bytes accessed per row activation
system.mem_ctrls0.bytesPerActivate::gmean   164.558529                       # Bytes accessed per row activation
system.mem_ctrls0.bytesPerActivate::stdev   166.725225                       # Bytes accessed per row activation
system.mem_ctrls0.bytesPerActivate::0-127        68517     31.81%     31.81% # Bytes accessed per row activation
system.mem_ctrls0.bytesPerActivate::128-255        54111     25.12%     56.92% # Bytes accessed per row activation
system.mem_ctrls0.bytesPerActivate::256-383        69860     32.43%     89.35% # Bytes accessed per row activation
system.mem_ctrls0.bytesPerActivate::384-511        10178      4.72%     94.08% # Bytes accessed per row activation
system.mem_ctrls0.bytesPerActivate::512-639         5865      2.72%     96.80% # Bytes accessed per row activation
system.mem_ctrls0.bytesPerActivate::640-767         2903      1.35%     98.15% # Bytes accessed per row activation
system.mem_ctrls0.bytesPerActivate::768-895         1444      0.67%     98.82% # Bytes accessed per row activation
system.mem_ctrls0.bytesPerActivate::896-1023          988      0.46%     99.28% # Bytes accessed per row activation
system.mem_ctrls0.bytesPerActivate::1024-1151         1558      0.72%    100.00% # Bytes accessed per row activation
system.mem_ctrls0.bytesPerActivate::total       215424                       # Bytes accessed per row activation
system.mem_ctrls0.rdPerTurnAround::samples        49936                       # Reads before turning the bus around for writes
system.mem_ctrls0.rdPerTurnAround::mean      7.906080                       # Reads before turning the bus around for writes
system.mem_ctrls0.rdPerTurnAround::stdev    18.987491                       # Reads before turning the bus around for writes
system.mem_ctrls0.rdPerTurnAround::0-127        49928     99.98%     99.98% # Reads before turning the bus around for writes
system.mem_ctrls0.rdPerTurnAround::128-255            7      0.01%    100.00% # Reads before turning the bus around for writes
system.mem_ctrls0.rdPerTurnAround::3968-4095            1      0.00%    100.00% # Reads before turning the bus around for writes
system.mem_ctrls0.rdPerTurnAround::total        49936                       # Reads before turning the bus around for writes
system.mem_ctrls0.wrPerTurnAround::samples        49936                       # Writes before turning the bus around for reads
system.mem_ctrls0.wrPerTurnAround::mean      6.703340                       # Writes before turning the bus around for reads
system.mem_ctrls0.wrPerTurnAround::gmean     6.089246                       # Writes before turning the bus around for reads
system.mem_ctrls0.wrPerTurnAround::stdev     3.538840                       # Writes before turning the bus around for reads
system.mem_ctrls0.wrPerTurnAround::4-7          40242     80.59%     80.59% # Writes before turning the bus around for reads
system.mem_ctrls0.wrPerTurnAround::8-11          1857      3.72%     84.31% # Writes before turning the bus around for reads
system.mem_ctrls0.wrPerTurnAround::12-15         5119     10.25%     94.56% # Writes before turning the bus around for reads
system.mem_ctrls0.wrPerTurnAround::16-19         2718      5.44%    100.00% # Writes before turning the bus around for reads
system.mem_ctrls0.wrPerTurnAround::total        49936                       # Writes before turning the bus around for reads
system.mem_ctrls0.totQLat                 66097560519                       # Total ticks spent queuing
system.mem_ctrls0.totMemAccLat            73500210519                       # Total ticks spent from burst creation until serviced by the DRAM
system.mem_ctrls0.totBusLat                1974040000                       # Total ticks spent in databus transfers
system.mem_ctrls0.avgQLat                   167416.97                       # Average queueing delay per DRAM burst
system.mem_ctrls0.avgBusLat                   5000.00                       # Average bus latency per DRAM burst
system.mem_ctrls0.avgMemAccLat              186166.97                       # Average memory access latency per DRAM burst
system.mem_ctrls0.avgRdBW                      164.27                       # Average DRAM read bandwidth in MiByte/s
system.mem_ctrls0.avgWrBW                      139.28                       # Average achieved write bandwidth in MiByte/s
system.mem_ctrls0.avgRdBWSys                   164.28                       # Average system read bandwidth in MiByte/s
system.mem_ctrls0.avgWrBWSys                   139.28                       # Average system write bandwidth in MiByte/s
system.mem_ctrls0.peakBW                     12800.00                       # Theoretical peak bandwidth in MiByte/s
system.mem_ctrls0.busUtil                        2.37                       # Data bus utilization in percentage
system.mem_ctrls0.busUtilRead                    1.28                       # Data bus utilization in percentage for reads
system.mem_ctrls0.busUtilWrite                   1.09                       # Data bus utilization in percentage for writes
system.mem_ctrls0.avgRdQLen                      1.44                       # Average read queue length when enqueuing
system.mem_ctrls0.avgWrQLen                      2.99                       # Average write queue length when enqueuing
system.mem_ctrls0.readRowHits                  295048                       # Number of row buffer hits during reads
system.mem_ctrls0.writeRowHits                 219073                       # Number of row buffer hits during writes
system.mem_ctrls0.readRowHitRate                74.73                       # Row buffer hit rate for reads
system.mem_ctrls0.writeRowHitRate               65.45                       # Row buffer hit rate for writes
system.mem_ctrls0.avgGap                    210835.05                       # Average gap between requests
system.mem_ctrls0.pageHitRate                   70.47                       # Row buffer hit rate, read and write combined
system.mem_ctrls0.memoryStateTime::IDLE   26565881000                       # Time in different power states
system.mem_ctrls0.memoryStateTime::REF     5136300000                       # Time in different power states
system.mem_ctrls0.memoryStateTime::PRE_PDN            0                       # Time in different power states
system.mem_ctrls0.memoryStateTime::ACT   122115461500                       # Time in different power states
system.mem_ctrls0.memoryStateTime::ACT_PDN            0                       # Time in different power states
system.mem_ctrls0.actEnergy::0              818959680                       # Energy for activate commands per rank (pJ)
system.mem_ctrls0.actEnergy::1              809638200                       # Energy for activate commands per rank (pJ)
system.mem_ctrls0.preEnergy::0              446853000                       # Energy for precharge commands per rank (pJ)
system.mem_ctrls0.preEnergy::1              441766875                       # Energy for precharge commands per rank (pJ)
system.mem_ctrls0.readEnergy::0            1546467000                       # Energy for read commands per rank (pJ)
system.mem_ctrls0.readEnergy::1            1533019800                       # Energy for read commands per rank (pJ)
system.mem_ctrls0.writeEnergy::0           1086585840                       # Energy for write commands per rank (pJ)
system.mem_ctrls0.writeEnergy::1           1082516400                       # Energy for write commands per rank (pJ)
system.mem_ctrls0.refreshEnergy::0        10046602800                       # Energy for refresh commands per rank (pJ)
system.mem_ctrls0.refreshEnergy::1        10046602800                       # Energy for refresh commands per rank (pJ)
system.mem_ctrls0.actBackEnergy::0        61115706090                       # Energy for active background per rank (pJ)
system.mem_ctrls0.actBackEnergy::1        60860515950                       # Energy for active background per rank (pJ)
system.mem_ctrls0.preBackEnergy::0        38680308750                       # Energy for precharge background per rank (pJ)
system.mem_ctrls0.preBackEnergy::1        38904159750                       # Energy for precharge background per rank (pJ)
system.mem_ctrls0.totalEnergy::0         113741483160                       # Total energy per rank (pJ)
system.mem_ctrls0.totalEnergy::1         113678219775                       # Total energy per rank (pJ)
system.mem_ctrls0.averagePower::0          739.456746                       # Core power per rank (mW)
system.mem_ctrls0.averagePower::1          739.045457                       # Core power per rank (mW)
system.mem_ctrls1.bytes_read::ruby.dir_cntrl1     24508992                       # Number of bytes read from this memory
system.mem_ctrls1.bytes_read::total          24508992                       # Number of bytes read from this memory
system.mem_ctrls1.bytes_written::ruby.dir_cntrl1     20685824                       # Number of bytes written to this memory
system.mem_ctrls1.bytes_written::total       20685824                       # Number of bytes written to this memory
system.mem_ctrls1.num_reads::ruby.dir_cntrl1       382953                       # Number of read requests responded to by this memory
system.mem_ctrls1.num_reads::total             382953                       # Number of read requests responded to by this memory
system.mem_ctrls1.num_writes::ruby.dir_cntrl1       323216                       # Number of write requests responded to by this memory
system.mem_ctrls1.num_writes::total            323216                       # Number of write requests responded to by this memory
system.mem_ctrls1.bw_read::ruby.dir_cntrl1    159337687                       # Total read bandwidth from this memory (bytes/s)
system.mem_ctrls1.bw_read::total            159337687                       # Total read bandwidth from this memory (bytes/s)
system.mem_ctrls1.bw_write::ruby.dir_cntrl1    134482534                       # Write bandwidth from this memory (bytes/s)
system.mem_ctrls1.bw_write::total           134482534                       # Write bandwidth from this memory (bytes/s)
system.mem_ctrls1.bw_total::ruby.dir_cntrl1    293820221                       # Total bandwidth to/from this memory (bytes/s)
system.mem_ctrls1.bw_total::total           293820221                       # Total bandwidth to/from this memory (bytes/s)
system.mem_ctrls1.readReqs                     382953                       # Number of read requests accepted
system.mem_ctrls1.writeReqs                    323216                       # Number of write requests accepted
system.mem_ctrls1.readBursts                   382953                       # Number of DRAM read bursts, including those serviced by the write queue
system.mem_ctrls1.writeBursts                  323216                       # Number of DRAM write bursts, including those merged in the write queue
system.mem_ctrls1.bytesReadDRAM              24507904                       # Total number of bytes read from DRAM
system.mem_ctrls1.bytesReadWrQ                   1088                       # Total number of bytes read from write queue
system.mem_ctrls1.bytesWritten               20685568                       # Total number of bytes written to DRAM
system.mem_ctrls1.bytesReadSys               24508992                       # Total read bytes from the system interface side
system.mem_ctrls1.bytesWrittenSys            20685824                       # Total written bytes from the system interface side
system.mem_ctrls1.servicedByWrQ                    17                       # Number of DRAM read bursts serviced by the write queue
system.mem_ctrls1.mergedWrBursts                    0                       # Number of DRAM write bursts merged with an existing one
system.mem_ctrls1.neitherReadNorWriteReqs            0                       # Number of requests that are neither read nor write
system.mem_ctrls1.perBankRdBursts::0            23652                       # Per bank write bursts
system.mem_ctrls1.perBankRdBursts::1            24328                       # Per bank write bursts
system.mem_ctrls1.perBankRdBursts::2            23891                       # Per bank write bursts
system.mem_ctrls1.perBankRdBursts::3            24204                       # Per bank write bursts
system.mem_ctrls1.perBankRdBursts::4            23868                       # Per bank write bursts
system.mem_ctrls1.perBankRdBursts::5            24185                       # Per bank write bursts
system.mem_ctrls1.perBankRdBursts::6            24228                       # Per bank write bursts
system.mem_ctrls1.perBankRdBursts::7            24040                       # Per bank write bursts
system.mem_ctrls1.perBankRdBursts::8            23915                       # Per bank write bursts
system.mem_ctrls1.perBankRdBursts::9            24037                       # Per bank write bursts
system.mem_ctrls1.perBankRdBursts::10           23807                       # Per bank write bursts
system.mem_ctrls1.perBankRdBursts::11           24345                       # Per bank write bursts
system.mem_ctrls1.perBankRdBursts::12           23594                       # Per bank write bursts
system.mem_ctrls1.perBankRdBursts::13           23492                       # Per bank write bursts
system.mem_ctrls1.perBankRdBursts::14           23598                       # Per bank write bursts
system.mem_ctrls1.perBankRdBursts::15           23752                       # Per bank write bursts
system.mem_ctrls1.perBankWrBursts::0            20225                       # Per bank write bursts
system.mem_ctrls1.perBankWrBursts::1            20111                       # Per bank write bursts
system.mem_ctrls1.perBankWrBursts::2            20147                       # Per bank write bursts
system.mem_ctrls1.perBankWrBursts::3            20418                       # Per bank write bursts
system.mem_ctrls1.perBankWrBursts::4            20035                       # Per bank write bursts
system.mem_ctrls1.perBankWrBursts::5            20354                       # Per bank write bursts
system.mem_ctrls1.perBankWrBursts::6            20342                       # Per bank write bursts
system.mem_ctrls1.perBankWrBursts::7            20323                       # Per bank write bursts
system.mem_ctrls1.perBankWrBursts::8            20394                       # Per bank write bursts
system.mem_ctrls1.perBankWrBursts::9            20216                       # Per bank write bursts
system.mem_ctrls1.perBankWrBursts::10           20130                       # Per bank write bursts
system.mem_ctrls1.perBankWrBursts::11           20155                       # Per bank write bursts
system.mem_ctrls1.perBankWrBursts::12           19941                       # Per bank write bursts
system.mem_ctrls1.perBankWrBursts::13           20182                       # Per bank write bursts
system.mem_ctrls1.perBankWrBursts::14           20168                       # Per bank write bursts
system.mem_ctrls1.perBankWrBursts::15           20071                       # Per bank write bursts
system.mem_ctrls1.numRdRetry                    96202                       # Number of times read queue was full causing retry
system.mem_ctrls1.numWrRetry                    12972                       # Number of times write queue was full causing retry
system.mem_ctrls1.totGap                 153817160000                       # Total gap between requests
system.mem_ctrls1.readPktSize::0                    0                       # Read request sizes (log2)
system.mem_ctrls1.readPktSize::1                    0                       # Read request sizes (log2)
system.mem_ctrls1.readPktSize::2                    0                       # Read request sizes (log2)
system.mem_ctrls1.readPktSize::3                    0                       # Read request sizes (log2)
system.mem_ctrls1.readPktSize::4                    0                       # Read request sizes (log2)
system.mem_ctrls1.readPktSize::5                    0                       # Read request sizes (log2)
system.mem_ctrls1.readPktSize::6               382953                       # Read request sizes (log2)
system.mem_ctrls1.writePktSize::0                   0                       # Write request sizes (log2)
system.mem_ctrls1.writePktSize::1                   0                       # Write request sizes (log2)
system.mem_ctrls1.writePktSize::2                   0                       # Write request sizes (log2)
system.mem_ctrls1.writePktSize::3                   0                       # Write request sizes (log2)
system.mem_ctrls1.writePktSize::4                   0                       # Write request sizes (log2)
system.mem_ctrls1.writePktSize::5                   0                       # Write request sizes (log2)
system.mem_ctrls1.writePktSize::6              323216                       # Write request sizes (log2)
system.mem_ctrls1.rdQLenPdf::0                 200424                       # What read queue length does an incoming req see
system.mem_ctrls1.rdQLenPdf::1                   1531                       # What read queue length does an incoming req see
system.mem_ctrls1.rdQLenPdf::2                   1107                       # What read queue length does an incoming req see
system.mem_ctrls1.rdQLenPdf::3                   1372                       # What read queue length does an incoming req see
system.mem_ctrls1.rdQLenPdf::4                   1691                       # What read queue length does an incoming req see
system.mem_ctrls1.rdQLenPdf::5                   1830                       # What read queue length does an incoming req see
system.mem_ctrls1.rdQLenPdf::6                   1901                       # What read queue length does an incoming req see
system.mem_ctrls1.rdQLenPdf::7                   1956                       # What read queue length does an incoming req see
system.mem_ctrls1.rdQLenPdf::8                   2062                       # What read queue length does an incoming req see
system.mem_ctrls1.rdQLenPdf::9                   2092                       # What read queue length does an incoming req see
system.mem_ctrls1.rdQLenPdf::10                  2362                       # What read queue length does an incoming req see
system.mem_ctrls1.rdQLenPdf::11                  2327                       # What read queue length does an incoming req see
system.mem_ctrls1.rdQLenPdf::12                  2405                       # What read queue length does an incoming req see
system.mem_ctrls1.rdQLenPdf::13                  2492                       # What read queue length does an incoming req see
system.mem_ctrls1.rdQLenPdf::14                  2568                       # What read queue length does an incoming req see
system.mem_ctrls1.rdQLenPdf::15                  2558                       # What read queue length does an incoming req see
system.mem_ctrls1.rdQLenPdf::16                  2575                       # What read queue length does an incoming req see
system.mem_ctrls1.rdQLenPdf::17                  2640                       # What read queue length does an incoming req see
system.mem_ctrls1.rdQLenPdf::18                  2682                       # What read queue length does an incoming req see
system.mem_ctrls1.rdQLenPdf::19                  2734                       # What read queue length does an incoming req see
system.mem_ctrls1.rdQLenPdf::20                  2843                       # What read queue length does an incoming req see
system.mem_ctrls1.rdQLenPdf::21                  2883                       # What read queue length does an incoming req see
system.mem_ctrls1.rdQLenPdf::22                  3012                       # What read queue length does an incoming req see
system.mem_ctrls1.rdQLenPdf::23                  3131                       # What read queue length does an incoming req see
system.mem_ctrls1.rdQLenPdf::24                  3080                       # What read queue length does an incoming req see
system.mem_ctrls1.rdQLenPdf::25                  3306                       # What read queue length does an incoming req see
system.mem_ctrls1.rdQLenPdf::26                  3440                       # What read queue length does an incoming req see
system.mem_ctrls1.rdQLenPdf::27                  3671                       # What read queue length does an incoming req see
system.mem_ctrls1.rdQLenPdf::28                  4033                       # What read queue length does an incoming req see
system.mem_ctrls1.rdQLenPdf::29                  4467                       # What read queue length does an incoming req see
system.mem_ctrls1.rdQLenPdf::30                  5021                       # What read queue length does an incoming req see
system.mem_ctrls1.rdQLenPdf::31                102740                       # What read queue length does an incoming req see
system.mem_ctrls1.wrQLenPdf::0                  46753                       # What write queue length does an incoming req see
system.mem_ctrls1.wrQLenPdf::1                  50414                       # What write queue length does an incoming req see
system.mem_ctrls1.wrQLenPdf::2                  52094                       # What write queue length does an incoming req see
system.mem_ctrls1.wrQLenPdf::3                  52898                       # What write queue length does an incoming req see
system.mem_ctrls1.wrQLenPdf::4                  53810                       # What write queue length does an incoming req see
system.mem_ctrls1.wrQLenPdf::5                  16692                       # What write queue length does an incoming req see
system.mem_ctrls1.wrQLenPdf::6                  20299                       # What write queue length does an incoming req see
system.mem_ctrls1.wrQLenPdf::7                  30256                       # What write queue length does an incoming req see
system.mem_ctrls1.bytesPerActivate::samples       186643                       # Bytes accessed per row activation
system.mem_ctrls1.bytesPerActivate::mean   242.137900                       # Bytes accessed per row activation
system.mem_ctrls1.bytesPerActivate::gmean   190.964750                       # Bytes accessed per row activation
system.mem_ctrls1.bytesPerActivate::stdev   170.592192                       # Bytes accessed per row activation
system.mem_ctrls1.bytesPerActivate::0-127        39982     21.42%     21.42% # Bytes accessed per row activation
system.mem_ctrls1.bytesPerActivate::128-255        52880     28.33%     49.75% # Bytes accessed per row activation
system.mem_ctrls1.bytesPerActivate::256-383        69975     37.49%     87.25% # Bytes accessed per row activation
system.mem_ctrls1.bytesPerActivate::384-511        10393      5.57%     92.81% # Bytes accessed per row activation
system.mem_ctrls1.bytesPerActivate::512-639         6106      3.27%     96.09% # Bytes accessed per row activation
system.mem_ctrls1.bytesPerActivate::640-767         2793      1.50%     97.58% # Bytes accessed per row activation
system.mem_ctrls1.bytesPerActivate::768-895         1575      0.84%     98.43% # Bytes accessed per row activation
system.mem_ctrls1.bytesPerActivate::896-1023         1058      0.57%     98.99% # Bytes accessed per row activation
system.mem_ctrls1.bytesPerActivate::1024-1151         1881      1.01%    100.00% # Bytes accessed per row activation
system.mem_ctrls1.bytesPerActivate::total       186643                       # Bytes accessed per row activation
system.mem_ctrls1.rdPerTurnAround::samples        48440                       # Reads before turning the bus around for writes
system.mem_ctrls1.rdPerTurnAround::mean      7.905099                       # Reads before turning the bus around for writes
system.mem_ctrls1.rdPerTurnAround::stdev    15.625121                       # Reads before turning the bus around for writes
system.mem_ctrls1.rdPerTurnAround::0-127        48434     99.99%     99.99% # Reads before turning the bus around for writes
system.mem_ctrls1.rdPerTurnAround::128-255            4      0.01%    100.00% # Reads before turning the bus around for writes
system.mem_ctrls1.rdPerTurnAround::1152-1279            1      0.00%    100.00% # Reads before turning the bus around for writes
system.mem_ctrls1.rdPerTurnAround::2816-2943            1      0.00%    100.00% # Reads before turning the bus around for writes
system.mem_ctrls1.rdPerTurnAround::total        48440                       # Reads before turning the bus around for writes
system.mem_ctrls1.wrPerTurnAround::samples        48440                       # Writes before turning the bus around for reads
system.mem_ctrls1.wrPerTurnAround::mean      6.672419                       # Writes before turning the bus around for reads
system.mem_ctrls1.wrPerTurnAround::gmean     6.079065                       # Writes before turning the bus around for reads
system.mem_ctrls1.wrPerTurnAround::stdev     3.465966                       # Writes before turning the bus around for reads
system.mem_ctrls1.wrPerTurnAround::4-7          38584     79.65%     79.65% # Writes before turning the bus around for reads
system.mem_ctrls1.wrPerTurnAround::8-11          2822      5.83%     85.48% # Writes before turning the bus around for reads
system.mem_ctrls1.wrPerTurnAround::12-15         4345      8.97%     94.45% # Writes before turning the bus around for reads
system.mem_ctrls1.wrPerTurnAround::16-19         2689      5.55%    100.00% # Writes before turning the bus around for reads
system.mem_ctrls1.wrPerTurnAround::total        48440                       # Writes before turning the bus around for reads
system.mem_ctrls1.totQLat                 58711672979                       # Total ticks spent queuing
system.mem_ctrls1.totMemAccLat            65891722979                       # Total ticks spent from burst creation until serviced by the DRAM
system.mem_ctrls1.totBusLat                1914680000                       # Total ticks spent in databus transfers
system.mem_ctrls1.avgQLat                   153319.81                       # Average queueing delay per DRAM burst
system.mem_ctrls1.avgBusLat                   5000.00                       # Average bus latency per DRAM burst
system.mem_ctrls1.avgMemAccLat              172069.81                       # Average memory access latency per DRAM burst
system.mem_ctrls1.avgRdBW                      159.33                       # Average DRAM read bandwidth in MiByte/s
system.mem_ctrls1.avgWrBW                      134.48                       # Average achieved write bandwidth in MiByte/s
system.mem_ctrls1.avgRdBWSys                   159.34                       # Average system read bandwidth in MiByte/s
system.mem_ctrls1.avgWrBWSys                   134.48                       # Average system write bandwidth in MiByte/s
system.mem_ctrls1.peakBW                     12800.00                       # Theoretical peak bandwidth in MiByte/s
system.mem_ctrls1.busUtil                        2.30                       # Data bus utilization in percentage
system.mem_ctrls1.busUtilRead                    1.24                       # Data bus utilization in percentage for reads
system.mem_ctrls1.busUtilWrite                   1.05                       # Data bus utilization in percentage for writes
system.mem_ctrls1.avgRdQLen                      1.39                       # Average read queue length when enqueuing
system.mem_ctrls1.avgWrQLen                      2.99                       # Average write queue length when enqueuing
system.mem_ctrls1.readRowHits                  291643                       # Number of row buffer hits during reads
system.mem_ctrls1.writeRowHits                 227861                       # Number of row buffer hits during writes
system.mem_ctrls1.readRowHitRate                76.16                       # Row buffer hit rate for reads
system.mem_ctrls1.writeRowHitRate               70.50                       # Row buffer hit rate for writes
system.mem_ctrls1.avgGap                    217819.19                       # Average gap between requests
system.mem_ctrls1.pageHitRate                   73.57                       # Row buffer hit rate, read and write combined
system.mem_ctrls1.memoryStateTime::IDLE   27042062250                       # Time in different power states
system.mem_ctrls1.memoryStateTime::REF     5136300000                       # Time in different power states
system.mem_ctrls1.memoryStateTime::PRE_PDN            0                       # Time in different power states
system.mem_ctrls1.memoryStateTime::ACT   121639414250                       # Time in different power states
system.mem_ctrls1.memoryStateTime::ACT_PDN            0                       # Time in different power states
system.mem_ctrls1.actEnergy::0              711562320                       # Energy for activate commands per rank (pJ)
system.mem_ctrls1.actEnergy::1              699458760                       # Energy for activate commands per rank (pJ)
system.mem_ctrls1.preEnergy::0              388253250                       # Energy for precharge commands per rank (pJ)
system.mem_ctrls1.preEnergy::1              381649125                       # Energy for precharge commands per rank (pJ)
system.mem_ctrls1.readEnergy::0            1500688800                       # Energy for read commands per rank (pJ)
system.mem_ctrls1.readEnergy::1            1486196400                       # Energy for read commands per rank (pJ)
system.mem_ctrls1.writeEnergy::0           1049468400                       # Energy for write commands per rank (pJ)
system.mem_ctrls1.writeEnergy::1           1044945360                       # Energy for write commands per rank (pJ)
system.mem_ctrls1.refreshEnergy::0        10046602800                       # Energy for refresh commands per rank (pJ)
system.mem_ctrls1.refreshEnergy::1        10046602800                       # Energy for refresh commands per rank (pJ)
system.mem_ctrls1.actBackEnergy::0        60083900640                       # Energy for active background per rank (pJ)
system.mem_ctrls1.actBackEnergy::1        59608512090                       # Energy for active background per rank (pJ)
system.mem_ctrls1.preBackEnergy::0        39585401250                       # Energy for precharge background per rank (pJ)
system.mem_ctrls1.preBackEnergy::1        40002408750                       # Energy for precharge background per rank (pJ)
system.mem_ctrls1.totalEnergy::0         113365877460                       # Total energy per rank (pJ)
system.mem_ctrls1.totalEnergy::1         113269773285                       # Total energy per rank (pJ)
system.mem_ctrls1.averagePower::0          737.014856                       # Core power per rank (mW)
system.mem_ctrls1.averagePower::1          736.390063                       # Core power per rank (mW)
system.mem_ctrls2.bytes_read::ruby.dir_cntrl2     24509312                       # Number of bytes read from this memory
system.mem_ctrls2.bytes_read::total          24509312                       # Number of bytes read from this memory
system.mem_ctrls2.bytes_written::ruby.dir_cntrl2     20687232                       # Number of bytes written to this memory
system.mem_ctrls2.bytes_written::total       20687232                       # Number of bytes written to this memory
system.mem_ctrls2.num_reads::ruby.dir_cntrl2       382958                       # Number of read requests responded to by this memory
system.mem_ctrls2.num_reads::total             382958                       # Number of read requests responded to by this memory
system.mem_ctrls2.num_writes::ruby.dir_cntrl2       323238                       # Number of write requests responded to by this memory
system.mem_ctrls2.num_writes::total            323238                       # Number of write requests responded to by this memory
system.mem_ctrls2.bw_read::ruby.dir_cntrl2    159339767                       # Total read bandwidth from this memory (bytes/s)
system.mem_ctrls2.bw_read::total            159339767                       # Total read bandwidth from this memory (bytes/s)
system.mem_ctrls2.bw_write::ruby.dir_cntrl2    134491688                       # Write bandwidth from this memory (bytes/s)
system.mem_ctrls2.bw_write::total           134491688                       # Write bandwidth from this memory (bytes/s)
system.mem_ctrls2.bw_total::ruby.dir_cntrl2    293831455                       # Total bandwidth to/from this memory (bytes/s)
system.mem_ctrls2.bw_total::total           293831455                       # Total bandwidth to/from this memory (bytes/s)
system.mem_ctrls2.readReqs                     382958                       # Number of read requests accepted
system.mem_ctrls2.writeReqs                    323238                       # Number of write requests accepted
system.mem_ctrls2.readBursts                   382958                       # Number of DRAM read bursts, including those serviced by the write queue
system.mem_ctrls2.writeBursts                  323238                       # Number of DRAM write bursts, including those merged in the write queue
system.mem_ctrls2.bytesReadDRAM              24508160                       # Total number of bytes read from DRAM
system.mem_ctrls2.bytesReadWrQ                   1152                       # Total number of bytes read from write queue
system.mem_ctrls2.bytesWritten               20687040                       # Total number of bytes written to DRAM
system.mem_ctrls2.bytesReadSys               24509312                       # Total read bytes from the system interface side
system.mem_ctrls2.bytesWrittenSys            20687232                       # Total written bytes from the system interface side
system.mem_ctrls2.servicedByWrQ                    18                       # Number of DRAM read bursts serviced by the write queue
system.mem_ctrls2.mergedWrBursts                    0                       # Number of DRAM write bursts merged with an existing one
system.mem_ctrls2.neitherReadNorWriteReqs            0                       # Number of requests that are neither read nor write
system.mem_ctrls2.perBankRdBursts::0            23640                       # Per bank write bursts
system.mem_ctrls2.perBankRdBursts::1            24299                       # Per bank write bursts
system.mem_ctrls2.perBankRdBursts::2            23935                       # Per bank write bursts
system.mem_ctrls2.perBankRdBursts::3            24276                       # Per bank write bursts
system.mem_ctrls2.perBankRdBursts::4            23867                       # Per bank write bursts
system.mem_ctrls2.perBankRdBursts::5            24156                       # Per bank write bursts
system.mem_ctrls2.perBankRdBursts::6            24227                       # Per bank write bursts
system.mem_ctrls2.perBankRdBursts::7            24028                       # Per bank write bursts
system.mem_ctrls2.perBankRdBursts::8            23897                       # Per bank write bursts
system.mem_ctrls2.perBankRdBursts::9            24049                       # Per bank write bursts
system.mem_ctrls2.perBankRdBursts::10           23814                       # Per bank write bursts
system.mem_ctrls2.perBankRdBursts::11           24325                       # Per bank write bursts
system.mem_ctrls2.perBankRdBursts::12           23625                       # Per bank write bursts
system.mem_ctrls2.perBankRdBursts::13           23435                       # Per bank write bursts
system.mem_ctrls2.perBankRdBursts::14           23589                       # Per bank write bursts
system.mem_ctrls2.perBankRdBursts::15           23778                       # Per bank write bursts
system.mem_ctrls2.perBankWrBursts::0            20218                       # Per bank write bursts
system.mem_ctrls2.perBankWrBursts::1            20108                       # Per bank write bursts
system.mem_ctrls2.perBankWrBursts::2            20150                       # Per bank write bursts
system.mem_ctrls2.perBankWrBursts::3            20422                       # Per bank write bursts
system.mem_ctrls2.perBankWrBursts::4            20037                       # Per bank write bursts
system.mem_ctrls2.perBankWrBursts::5            20339                       # Per bank write bursts
system.mem_ctrls2.perBankWrBursts::6            20351                       # Per bank write bursts
system.mem_ctrls2.perBankWrBursts::7            20330                       # Per bank write bursts
system.mem_ctrls2.perBankWrBursts::8            20395                       # Per bank write bursts
system.mem_ctrls2.perBankWrBursts::9            20223                       # Per bank write bursts
system.mem_ctrls2.perBankWrBursts::10           20122                       # Per bank write bursts
system.mem_ctrls2.perBankWrBursts::11           20152                       # Per bank write bursts
system.mem_ctrls2.perBankWrBursts::12           19948                       # Per bank write bursts
system.mem_ctrls2.perBankWrBursts::13           20177                       # Per bank write bursts
system.mem_ctrls2.perBankWrBursts::14           20175                       # Per bank write bursts
system.mem_ctrls2.perBankWrBursts::15           20088                       # Per bank write bursts
system.mem_ctrls2.numRdRetry                    92201                       # Number of times read queue was full causing retry
system.mem_ctrls2.numWrRetry                    13154                       # Number of times write queue was full causing retry
system.mem_ctrls2.totGap                 153816939000                       # Total gap between requests
system.mem_ctrls2.readPktSize::0                    0                       # Read request sizes (log2)
system.mem_ctrls2.readPktSize::1                    0                       # Read request sizes (log2)
system.mem_ctrls2.readPktSize::2                    0                       # Read request sizes (log2)
system.mem_ctrls2.readPktSize::3                    0                       # Read request sizes (log2)
system.mem_ctrls2.readPktSize::4                    0                       # Read request sizes (log2)
system.mem_ctrls2.readPktSize::5                    0                       # Read request sizes (log2)
system.mem_ctrls2.readPktSize::6               382958                       # Read request sizes (log2)
system.mem_ctrls2.writePktSize::0                   0                       # Write request sizes (log2)
system.mem_ctrls2.writePktSize::1                   0                       # Write request sizes (log2)
system.mem_ctrls2.writePktSize::2                   0                       # Write request sizes (log2)
system.mem_ctrls2.writePktSize::3                   0                       # Write request sizes (log2)
system.mem_ctrls2.writePktSize::4                   0                       # Write request sizes (log2)
system.mem_ctrls2.writePktSize::5                   0                       # Write request sizes (log2)
system.mem_ctrls2.writePktSize::6              323238                       # Write request sizes (log2)
system.mem_ctrls2.rdQLenPdf::0                 200677                       # What read queue length does an incoming req see
system.mem_ctrls2.rdQLenPdf::1                   1366                       # What read queue length does an incoming req see
system.mem_ctrls2.rdQLenPdf::2                   1119                       # What read queue length does an incoming req see
system.mem_ctrls2.rdQLenPdf::3                   1367                       # What read queue length does an incoming req see
system.mem_ctrls2.rdQLenPdf::4                   1650                       # What read queue length does an incoming req see
system.mem_ctrls2.rdQLenPdf::5                   1850                       # What read queue length does an incoming req see
system.mem_ctrls2.rdQLenPdf::6                   1950                       # What read queue length does an incoming req see
system.mem_ctrls2.rdQLenPdf::7                   2041                       # What read queue length does an incoming req see
system.mem_ctrls2.rdQLenPdf::8                   2100                       # What read queue length does an incoming req see
system.mem_ctrls2.rdQLenPdf::9                   2255                       # What read queue length does an incoming req see
system.mem_ctrls2.rdQLenPdf::10                  2363                       # What read queue length does an incoming req see
system.mem_ctrls2.rdQLenPdf::11                  2367                       # What read queue length does an incoming req see
system.mem_ctrls2.rdQLenPdf::12                  2420                       # What read queue length does an incoming req see
system.mem_ctrls2.rdQLenPdf::13                  2527                       # What read queue length does an incoming req see
system.mem_ctrls2.rdQLenPdf::14                  2602                       # What read queue length does an incoming req see
system.mem_ctrls2.rdQLenPdf::15                  2821                       # What read queue length does an incoming req see
system.mem_ctrls2.rdQLenPdf::16                  2862                       # What read queue length does an incoming req see
system.mem_ctrls2.rdQLenPdf::17                  2888                       # What read queue length does an incoming req see
system.mem_ctrls2.rdQLenPdf::18                  2976                       # What read queue length does an incoming req see
system.mem_ctrls2.rdQLenPdf::19                  3042                       # What read queue length does an incoming req see
system.mem_ctrls2.rdQLenPdf::20                  3159                       # What read queue length does an incoming req see
system.mem_ctrls2.rdQLenPdf::21                  3243                       # What read queue length does an incoming req see
system.mem_ctrls2.rdQLenPdf::22                  3238                       # What read queue length does an incoming req see
system.mem_ctrls2.rdQLenPdf::23                  3203                       # What read queue length does an incoming req see
system.mem_ctrls2.rdQLenPdf::24                  3245                       # What read queue length does an incoming req see
system.mem_ctrls2.rdQLenPdf::25                  3431                       # What read queue length does an incoming req see
system.mem_ctrls2.rdQLenPdf::26                  3643                       # What read queue length does an incoming req see
system.mem_ctrls2.rdQLenPdf::27                  3890                       # What read queue length does an incoming req see
system.mem_ctrls2.rdQLenPdf::28                  4191                       # What read queue length does an incoming req see
system.mem_ctrls2.rdQLenPdf::29                  4552                       # What read queue length does an incoming req see
system.mem_ctrls2.rdQLenPdf::30                  5002                       # What read queue length does an incoming req see
system.mem_ctrls2.rdQLenPdf::31                 98900                       # What read queue length does an incoming req see
system.mem_ctrls2.wrQLenPdf::0                  46757                       # What write queue length does an incoming req see
system.mem_ctrls2.wrQLenPdf::1                  50332                       # What write queue length does an incoming req see
system.mem_ctrls2.wrQLenPdf::2                  52012                       # What write queue length does an incoming req see
system.mem_ctrls2.wrQLenPdf::3                  53031                       # What write queue length does an incoming req see
system.mem_ctrls2.wrQLenPdf::4                  53780                       # What write queue length does an incoming req see
system.mem_ctrls2.wrQLenPdf::5                  16706                       # What write queue length does an incoming req see
system.mem_ctrls2.wrQLenPdf::6                  20287                       # What write queue length does an incoming req see
system.mem_ctrls2.wrQLenPdf::7                  30333                       # What write queue length does an incoming req see
system.mem_ctrls2.bytesPerActivate::samples       186051                       # Bytes accessed per row activation
system.mem_ctrls2.bytesPerActivate::mean   242.918340                       # Bytes accessed per row activation
system.mem_ctrls2.bytesPerActivate::gmean   191.911209                       # Bytes accessed per row activation
system.mem_ctrls2.bytesPerActivate::stdev   170.290716                       # Bytes accessed per row activation
system.mem_ctrls2.bytesPerActivate::0-127        39343     21.15%     21.15% # Bytes accessed per row activation
system.mem_ctrls2.bytesPerActivate::128-255        52156     28.03%     49.18% # Bytes accessed per row activation
system.mem_ctrls2.bytesPerActivate::256-383        70588     37.94%     87.12% # Bytes accessed per row activation
system.mem_ctrls2.bytesPerActivate::384-511        10507      5.65%     92.77% # Bytes accessed per row activation
system.mem_ctrls2.bytesPerActivate::512-639         6181      3.32%     96.09% # Bytes accessed per row activation
system.mem_ctrls2.bytesPerActivate::640-767         2811      1.51%     97.60% # Bytes accessed per row activation
system.mem_ctrls2.bytesPerActivate::768-895         1550      0.83%     98.43% # Bytes accessed per row activation
system.mem_ctrls2.bytesPerActivate::896-1023          983      0.53%     98.96% # Bytes accessed per row activation
system.mem_ctrls2.bytesPerActivate::1024-1151         1932      1.04%    100.00% # Bytes accessed per row activation
system.mem_ctrls2.bytesPerActivate::total       186051                       # Bytes accessed per row activation
system.mem_ctrls2.rdPerTurnAround::samples        48470                       # Reads before turning the bus around for writes
system.mem_ctrls2.rdPerTurnAround::mean      7.900433                       # Reads before turning the bus around for writes
system.mem_ctrls2.rdPerTurnAround::stdev    15.687612                       # Reads before turning the bus around for writes
system.mem_ctrls2.rdPerTurnAround::0-127        48464     99.99%     99.99% # Reads before turning the bus around for writes
system.mem_ctrls2.rdPerTurnAround::128-255            4      0.01%    100.00% # Reads before turning the bus around for writes
system.mem_ctrls2.rdPerTurnAround::1152-1279            1      0.00%    100.00% # Reads before turning the bus around for writes
system.mem_ctrls2.rdPerTurnAround::2816-2943            1      0.00%    100.00% # Reads before turning the bus around for writes
system.mem_ctrls2.rdPerTurnAround::total        48470                       # Reads before turning the bus around for writes
system.mem_ctrls2.wrPerTurnAround::samples        48470                       # Writes before turning the bus around for reads
system.mem_ctrls2.wrPerTurnAround::mean      6.668764                       # Writes before turning the bus around for reads
system.mem_ctrls2.wrPerTurnAround::gmean     6.076840                       # Writes before turning the bus around for reads
system.mem_ctrls2.wrPerTurnAround::stdev     3.461996                       # Writes before turning the bus around for reads
system.mem_ctrls2.wrPerTurnAround::4-7          38614     79.67%     79.67% # Writes before turning the bus around for reads
system.mem_ctrls2.wrPerTurnAround::8-11          2871      5.92%     85.59% # Writes before turning the bus around for reads
system.mem_ctrls2.wrPerTurnAround::12-15         4285      8.84%     94.43% # Writes before turning the bus around for reads
system.mem_ctrls2.wrPerTurnAround::16-19         2700      5.57%    100.00% # Writes before turning the bus around for reads
system.mem_ctrls2.wrPerTurnAround::total        48470                       # Writes before turning the bus around for reads
system.mem_ctrls2.totQLat                 58159955107                       # Total ticks spent queuing
system.mem_ctrls2.totMemAccLat            65340080107                       # Total ticks spent from burst creation until serviced by the DRAM
system.mem_ctrls2.totBusLat                1914700000                       # Total ticks spent in databus transfers
system.mem_ctrls2.avgQLat                   151877.46                       # Average queueing delay per DRAM burst
system.mem_ctrls2.avgBusLat                   5000.00                       # Average bus latency per DRAM burst
system.mem_ctrls2.avgMemAccLat              170627.46                       # Average memory access latency per DRAM burst
system.mem_ctrls2.avgRdBW                      159.33                       # Average DRAM read bandwidth in MiByte/s
system.mem_ctrls2.avgWrBW                      134.49                       # Average achieved write bandwidth in MiByte/s
system.mem_ctrls2.avgRdBWSys                   159.34                       # Average system read bandwidth in MiByte/s
system.mem_ctrls2.avgWrBWSys                   134.49                       # Average system write bandwidth in MiByte/s
system.mem_ctrls2.peakBW                     12800.00                       # Theoretical peak bandwidth in MiByte/s
system.mem_ctrls2.busUtil                        2.30                       # Data bus utilization in percentage
system.mem_ctrls2.busUtilRead                    1.24                       # Data bus utilization in percentage for reads
system.mem_ctrls2.busUtilWrite                   1.05                       # Data bus utilization in percentage for writes
system.mem_ctrls2.avgRdQLen                      1.38                       # Average read queue length when enqueuing
system.mem_ctrls2.avgWrQLen                      3.01                       # Average write queue length when enqueuing
system.mem_ctrls2.readRowHits                  291651                       # Number of row buffer hits during reads
system.mem_ctrls2.writeRowHits                 228473                       # Number of row buffer hits during writes
system.mem_ctrls2.readRowHitRate                76.16                       # Row buffer hit rate for reads
system.mem_ctrls2.writeRowHitRate               70.68                       # Row buffer hit rate for writes
system.mem_ctrls2.avgGap                    217810.55                       # Average gap between requests
system.mem_ctrls2.pageHitRate                   73.65                       # Row buffer hit rate, read and write combined
system.mem_ctrls2.memoryStateTime::IDLE   27138643000                       # Time in different power states
system.mem_ctrls2.memoryStateTime::REF     5136300000                       # Time in different power states
system.mem_ctrls2.memoryStateTime::PRE_PDN            0                       # Time in different power states
system.mem_ctrls2.memoryStateTime::ACT   121542699500                       # Time in different power states
system.mem_ctrls2.memoryStateTime::ACT_PDN            0                       # Time in different power states
system.mem_ctrls2.actEnergy::0              708855840                       # Energy for activate commands per rank (pJ)
system.mem_ctrls2.actEnergy::1              697689720                       # Energy for activate commands per rank (pJ)
system.mem_ctrls2.preEnergy::0              386776500                       # Energy for precharge commands per rank (pJ)
system.mem_ctrls2.preEnergy::1              380683875                       # Energy for precharge commands per rank (pJ)
system.mem_ctrls2.readEnergy::0            1500938400                       # Energy for read commands per rank (pJ)
system.mem_ctrls2.readEnergy::1            1485993600                       # Energy for read commands per rank (pJ)
system.mem_ctrls2.writeEnergy::0           1049468400                       # Energy for write commands per rank (pJ)
system.mem_ctrls2.writeEnergy::1           1045094400                       # Energy for write commands per rank (pJ)
system.mem_ctrls2.refreshEnergy::0        10046602800                       # Energy for refresh commands per rank (pJ)
system.mem_ctrls2.refreshEnergy::1        10046602800                       # Energy for refresh commands per rank (pJ)
system.mem_ctrls2.actBackEnergy::0        59661330570                       # Energy for active background per rank (pJ)
system.mem_ctrls2.actBackEnergy::1        59198832855                       # Energy for active background per rank (pJ)
system.mem_ctrls2.preBackEnergy::0        39956076750                       # Energy for precharge background per rank (pJ)
system.mem_ctrls2.preBackEnergy::1        40361776500                       # Energy for precharge background per rank (pJ)
system.mem_ctrls2.totalEnergy::0         113310049260                       # Total energy per rank (pJ)
system.mem_ctrls2.totalEnergy::1         113216673750                       # Total energy per rank (pJ)
system.mem_ctrls2.averagePower::0          736.651905                       # Core power per rank (mW)
system.mem_ctrls2.averagePower::1          736.044852                       # Core power per rank (mW)
system.mem_ctrls3.bytes_read::ruby.dir_cntrl3     24489344                       # Number of bytes read from this memory
system.mem_ctrls3.bytes_read::total          24489344                       # Number of bytes read from this memory
system.mem_ctrls3.bytes_written::ruby.dir_cntrl3     20684992                       # Number of bytes written to this memory
system.mem_ctrls3.bytes_written::total       20684992                       # Number of bytes written to this memory
system.mem_ctrls3.num_reads::ruby.dir_cntrl3       382646                       # Number of read requests responded to by this memory
system.mem_ctrls3.num_reads::total             382646                       # Number of read requests responded to by this memory
system.mem_ctrls3.num_writes::ruby.dir_cntrl3       323203                       # Number of write requests responded to by this memory
system.mem_ctrls3.num_writes::total            323203                       # Number of write requests responded to by this memory
system.mem_ctrls3.bw_read::ruby.dir_cntrl3    159209952                       # Total read bandwidth from this memory (bytes/s)
system.mem_ctrls3.bw_read::total            159209952                       # Total read bandwidth from this memory (bytes/s)
system.mem_ctrls3.bw_write::ruby.dir_cntrl3    134477125                       # Write bandwidth from this memory (bytes/s)
system.mem_ctrls3.bw_write::total           134477125                       # Write bandwidth from this memory (bytes/s)
system.mem_ctrls3.bw_total::ruby.dir_cntrl3    293687077                       # Total bandwidth to/from this memory (bytes/s)
system.mem_ctrls3.bw_total::total           293687077                       # Total bandwidth to/from this memory (bytes/s)
system.mem_ctrls3.readReqs                     382646                       # Number of read requests accepted
system.mem_ctrls3.writeReqs                    323203                       # Number of write requests accepted
system.mem_ctrls3.readBursts                   382646                       # Number of DRAM read bursts, including those serviced by the write queue
system.mem_ctrls3.writeBursts                  323203                       # Number of DRAM write bursts, including those merged in the write queue
system.mem_ctrls3.bytesReadDRAM              24488704                       # Total number of bytes read from DRAM
system.mem_ctrls3.bytesReadWrQ                    640                       # Total number of bytes read from write queue
system.mem_ctrls3.bytesWritten               20684992                       # Total number of bytes written to DRAM
system.mem_ctrls3.bytesReadSys               24489344                       # Total read bytes from the system interface side
system.mem_ctrls3.bytesWrittenSys            20684992                       # Total written bytes from the system interface side
system.mem_ctrls3.servicedByWrQ                    10                       # Number of DRAM read bursts serviced by the write queue
system.mem_ctrls3.mergedWrBursts                    0                       # Number of DRAM write bursts merged with an existing one
system.mem_ctrls3.neitherReadNorWriteReqs            0                       # Number of requests that are neither read nor write
system.mem_ctrls3.perBankRdBursts::0            23629                       # Per bank write bursts
system.mem_ctrls3.perBankRdBursts::1            24298                       # Per bank write bursts
system.mem_ctrls3.perBankRdBursts::2            23812                       # Per bank write bursts
system.mem_ctrls3.perBankRdBursts::3            24239                       # Per bank write bursts
system.mem_ctrls3.perBankRdBursts::4            23815                       # Per bank write bursts
system.mem_ctrls3.perBankRdBursts::5            24166                       # Per bank write bursts
system.mem_ctrls3.perBankRdBursts::6            24222                       # Per bank write bursts
system.mem_ctrls3.perBankRdBursts::7            24030                       # Per bank write bursts
system.mem_ctrls3.perBankRdBursts::8            23882                       # Per bank write bursts
system.mem_ctrls3.perBankRdBursts::9            24026                       # Per bank write bursts
system.mem_ctrls3.perBankRdBursts::10           23881                       # Per bank write bursts
system.mem_ctrls3.perBankRdBursts::11           24276                       # Per bank write bursts
system.mem_ctrls3.perBankRdBursts::12           23558                       # Per bank write bursts
system.mem_ctrls3.perBankRdBursts::13           23445                       # Per bank write bursts
system.mem_ctrls3.perBankRdBursts::14           23607                       # Per bank write bursts
system.mem_ctrls3.perBankRdBursts::15           23750                       # Per bank write bursts
system.mem_ctrls3.perBankWrBursts::0            20220                       # Per bank write bursts
system.mem_ctrls3.perBankWrBursts::1            20104                       # Per bank write bursts
system.mem_ctrls3.perBankWrBursts::2            20154                       # Per bank write bursts
system.mem_ctrls3.perBankWrBursts::3            20410                       # Per bank write bursts
system.mem_ctrls3.perBankWrBursts::4            20032                       # Per bank write bursts
system.mem_ctrls3.perBankWrBursts::5            20340                       # Per bank write bursts
system.mem_ctrls3.perBankWrBursts::6            20352                       # Per bank write bursts
system.mem_ctrls3.perBankWrBursts::7            20319                       # Per bank write bursts
system.mem_ctrls3.perBankWrBursts::8            20391                       # Per bank write bursts
system.mem_ctrls3.perBankWrBursts::9            20223                       # Per bank write bursts
system.mem_ctrls3.perBankWrBursts::10           20122                       # Per bank write bursts
system.mem_ctrls3.perBankWrBursts::11           20163                       # Per bank write bursts
system.mem_ctrls3.perBankWrBursts::12           19946                       # Per bank write bursts
system.mem_ctrls3.perBankWrBursts::13           20185                       # Per bank write bursts
system.mem_ctrls3.perBankWrBursts::14           20175                       # Per bank write bursts
system.mem_ctrls3.perBankWrBursts::15           20067                       # Per bank write bursts
system.mem_ctrls3.numRdRetry                    89827                       # Number of times read queue was full causing retry
system.mem_ctrls3.numWrRetry                    12652                       # Number of times write queue was full causing retry
system.mem_ctrls3.totGap                 153816615500                       # Total gap between requests
system.mem_ctrls3.readPktSize::0                    0                       # Read request sizes (log2)
system.mem_ctrls3.readPktSize::1                    0                       # Read request sizes (log2)
system.mem_ctrls3.readPktSize::2                    0                       # Read request sizes (log2)
system.mem_ctrls3.readPktSize::3                    0                       # Read request sizes (log2)
system.mem_ctrls3.readPktSize::4                    0                       # Read request sizes (log2)
system.mem_ctrls3.readPktSize::5                    0                       # Read request sizes (log2)
system.mem_ctrls3.readPktSize::6               382646                       # Read request sizes (log2)
system.mem_ctrls3.writePktSize::0                   0                       # Write request sizes (log2)
system.mem_ctrls3.writePktSize::1                   0                       # Write request sizes (log2)
system.mem_ctrls3.writePktSize::2                   0                       # Write request sizes (log2)
system.mem_ctrls3.writePktSize::3                   0                       # Write request sizes (log2)
system.mem_ctrls3.writePktSize::4                   0                       # Write request sizes (log2)
system.mem_ctrls3.writePktSize::5                   0                       # Write request sizes (log2)
system.mem_ctrls3.writePktSize::6              323203                       # Write request sizes (log2)
system.mem_ctrls3.rdQLenPdf::0                 200268                       # What read queue length does an incoming req see
system.mem_ctrls3.rdQLenPdf::1                   1429                       # What read queue length does an incoming req see
system.mem_ctrls3.rdQLenPdf::2                   1136                       # What read queue length does an incoming req see
system.mem_ctrls3.rdQLenPdf::3                   1341                       # What read queue length does an incoming req see
system.mem_ctrls3.rdQLenPdf::4                   1602                       # What read queue length does an incoming req see
system.mem_ctrls3.rdQLenPdf::5                   1846                       # What read queue length does an incoming req see
system.mem_ctrls3.rdQLenPdf::6                   1998                       # What read queue length does an incoming req see
system.mem_ctrls3.rdQLenPdf::7                   2089                       # What read queue length does an incoming req see
system.mem_ctrls3.rdQLenPdf::8                   2215                       # What read queue length does an incoming req see
system.mem_ctrls3.rdQLenPdf::9                   2321                       # What read queue length does an incoming req see
system.mem_ctrls3.rdQLenPdf::10                  2366                       # What read queue length does an incoming req see
system.mem_ctrls3.rdQLenPdf::11                  2463                       # What read queue length does an incoming req see
system.mem_ctrls3.rdQLenPdf::12                  2549                       # What read queue length does an incoming req see
system.mem_ctrls3.rdQLenPdf::13                  2663                       # What read queue length does an incoming req see
system.mem_ctrls3.rdQLenPdf::14                  2700                       # What read queue length does an incoming req see
system.mem_ctrls3.rdQLenPdf::15                  2816                       # What read queue length does an incoming req see
system.mem_ctrls3.rdQLenPdf::16                  2885                       # What read queue length does an incoming req see
system.mem_ctrls3.rdQLenPdf::17                  3002                       # What read queue length does an incoming req see
system.mem_ctrls3.rdQLenPdf::18                  3007                       # What read queue length does an incoming req see
system.mem_ctrls3.rdQLenPdf::19                  3098                       # What read queue length does an incoming req see
system.mem_ctrls3.rdQLenPdf::20                  3127                       # What read queue length does an incoming req see
system.mem_ctrls3.rdQLenPdf::21                  3194                       # What read queue length does an incoming req see
system.mem_ctrls3.rdQLenPdf::22                  3274                       # What read queue length does an incoming req see
system.mem_ctrls3.rdQLenPdf::23                  3312                       # What read queue length does an incoming req see
system.mem_ctrls3.rdQLenPdf::24                  3444                       # What read queue length does an incoming req see
[...]
system.ruby.L2Cache_Controller.S_I.Ack::total            2                      
system.ruby.L2Cache_Controller.S_I.Ack_all |           0      0.00%      0.00% |           4     28.57%     28.57% |           1      7.14%     35.71% |           1      7.14%     42.86% |           0      0.00%     42.86% |           2     14.29%     57.14% |           0      0.00%     57.14% |           0      0.00%     57.14% |           0      0.00%     57.14% |           1      7.14%     64.29% |           1      7.14%     71.43% |           0      0.00%     71.43% |           0      0.00%     71.43% |           0      0.00%     71.43% |           1      7.14%     78.57% |           0      0.00%     78.57% |           0      0.00%     78.57% |           0      0.00%     78.57% |           1      7.14%     85.71% |           0      0.00%     85.71% |           0      0.00%     85.71% |           0      0.00%     85.71% |           0      0.00%     85.71% |           0      0.00%     85.71% |           1      7.14%     92.86% |           0      0.00%     92.86% |           0      0.00%     92.86% |           0      0.00%     92.86% |           1      7.14%    100.00% |           0      0.00%    100.00% |           0      0.00%    100.00% |           0      0.00%    100.00%
system.ruby.L2Cache_Controller.S_I.Ack_all::total           14                      
system.ruby.L2Cache_Controller.ISS.Mem_Data |       18675      7.92%      7.92% |        7079      3.00%     10.93% |        7085      3.01%     13.93% |        7031      2.98%     16.92% |        7003      2.97%     19.89% |        6982      2.96%     22.85% |        6997      2.97%     25.82% |        6993      2.97%     28.78% |        7029      2.98%     31.77% |        7032      2.98%     34.75% |        7063      3.00%     37.75% |        6988      2.96%     40.71% |        6994      2.97%     43.68% |        6994      2.97%     46.65% |        6995      2.97%     49.61% |        6958      2.95%     52.57% |        6996      2.97%     55.53% |        6973      2.96%     58.49% |        7004      2.97%     61.46% |        6983      2.96%     64.43% |        6981      2.96%     67.39% |        6967      2.96%     70.35% |        6991      2.97%     73.31% |        6985      2.96%     76.27% |        7002      2.97%     79.25% |        7004      2.97%     82.22% |        6983      2.96%     85.18% |        6963      2.95%     88.13% |        7005      2.97%     91.11% |        6985      2.96%     94.07% |        6960      2.95%     97.02% |        7018      2.98%    100.00%
system.ruby.L2Cache_Controller.ISS.Mem_Data::total       235698                      
system.ruby.L2Cache_Controller.IS.Mem_Data |         542      3.26%      3.26% |         470      2.83%      6.09% |         464      2.79%      8.89% |         465      2.80%     11.69% |         511      3.08%     14.76% |         466      2.81%     17.57% |         504      3.03%     20.60% |         528      3.18%     23.78% |         547      3.29%     27.08% |         487      2.93%     30.01% |         533      3.21%     33.22% |         566      3.41%     36.63% |         618      3.72%     40.35% |         561      3.38%     43.73% |         579      3.49%     47.21% |         523      3.15%     50.36% |         532      3.20%     53.56% |         569      3.43%     56.99% |         562      3.38%     60.37% |         509      3.06%     63.44% |         503      3.03%     66.47% |         520      3.13%     69.60% |         480      2.89%     72.49% |         468      2.82%     75.31% |         546      3.29%     78.59% |         592      3.56%     82.16% |         532      3.20%     85.36% |         479      2.88%     88.25% |         488      2.94%     91.18% |         509      3.06%     94.25% |         490      2.95%     97.20% |         465      2.80%    100.00%
system.ruby.L2Cache_Controller.IS.Mem_Data::total        16608                      
system.ruby.L2Cache_Controller.IM.L1_GETX |           2    100.00%    100.00% |           0      0.00%    100.00% |           0      0.00%    100.00% |           0      0.00%    100.00% |           0      0.00%    100.00% |           0      0.00%    100.00% |           0      0.00%    100.00% |           0      0.00%    100.00% |           0      0.00%    100.00% |           0      0.00%    100.00% |           0      0.00%    100.00% |           0      0.00%    100.00% |           0      0.00%    100.00% |           0      0.00%    100.00% |           0      0.00%    100.00% |           0      0.00%    100.00% |           0      0.00%    100.00% |           0      0.00%    100.00% |           0      0.00%    100.00% |           0      0.00%    100.00% |           0      0.00%    100.00% |           0      0.00%    100.00% |           0      0.00%    100.00% |           0      0.00%    100.00% |           0      0.00%    100.00% |           0      0.00%    100.00% |           0      0.00%    100.00% |           0      0.00%    100.00% |           0      0.00%    100.00% |           0      0.00%    100.00% |           0      0.00%    100.00% |           0      0.00%    100.00%
system.ruby.L2Cache_Controller.IM.L1_GETX::total            2                      
system.ruby.L2Cache_Controller.IM.Mem_Data |       40407      3.13%      3.13% |       40329      3.12%      6.25% |       40341      3.12%      9.38% |       40347      3.13%     12.50% |       40353      3.13%     15.63% |       40365      3.13%     18.76% |       40339      3.12%     21.88% |       40336      3.12%     25.00% |       40349      3.13%     28.13% |       40344      3.12%     31.25% |       40329      3.12%     34.38% |       40358      3.13%     37.50% |       40339      3.12%     40.63% |       40338      3.12%     43.75% |       40341      3.12%     46.88% |       40330      3.12%     50.00% |       40352      3.13%     53.13% |       40351      3.13%     56.25% |       40349      3.13%     59.38% |       40345      3.12%     62.50% |       40340      3.12%     65.63% |       40354      3.13%     68.75% |       40339      3.12%     71.88% |       40341      3.12%     75.00% |       40347      3.13%     78.13% |       40345      3.12%     81.25% |       40349      3.13%     84.38% |       40336      3.12%     87.50% |       40336      3.12%     90.63% |       40337      3.12%     93.75% |       40349      3.13%     96.88% |       40331      3.12%    100.00%
system.ruby.L2Cache_Controller.IM.Mem_Data::total      1291046                      
system.ruby.L2Cache_Controller.SS_MB.Exclusive_Unblock |           4      8.89%      8.89% |           6     13.33%     22.22% |           2      4.44%     26.67% |           6     13.33%     40.00% |           1      2.22%     42.22% |           0      0.00%     42.22% |           1      2.22%     44.44% |           0      0.00%     44.44% |           0      0.00%     44.44% |           1      2.22%     46.67% |           1      2.22%     48.89% |           0      0.00%     48.89% |           4      8.89%     57.78% |           0      0.00%     57.78% |           3      6.67%     64.44% |           0      0.00%     64.44% |           0      0.00%     64.44% |           0      0.00%     64.44% |           9     20.00%     84.44% |           0      0.00%     84.44% |           0      0.00%     84.44% |           0      0.00%     84.44% |           0      0.00%     84.44% |           0      0.00%     84.44% |           1      2.22%     86.67% |           2      4.44%     91.11% |           1      2.22%     93.33% |           1      2.22%     95.56% |           0      0.00%     95.56% |           1      2.22%     97.78% |           1      2.22%    100.00% |           0      0.00%    100.00%
system.ruby.L2Cache_Controller.SS_MB.Exclusive_Unblock::total           45                      
system.ruby.L2Cache_Controller.MT_MB.L1_PUTX |           2    100.00%    100.00% |           0      0.00%    100.00% |           0      0.00%    100.00% |           0      0.00%    100.00% |           0      0.00%    100.00% |           0      0.00%    100.00% |           0      0.00%    100.00% |           0      0.00%    100.00% |           0      0.00%    100.00% |           0      0.00%    100.00% |           0      0.00%    100.00% |           0      0.00%    100.00% |           0      0.00%    100.00% |           0      0.00%    100.00% |           0      0.00%    100.00% |           0      0.00%    100.00% |           0      0.00%    100.00% |           0      0.00%    100.00% |           0      0.00%    100.00% |           0      0.00%    100.00% |           0      0.00%    100.00% |           0      0.00%    100.00% |           0      0.00%    100.00% |           0      0.00%    100.00% |           0      0.00%    100.00% |           0      0.00%    100.00% |           0      0.00%    100.00% |           0      0.00%    100.00% |           0      0.00%    100.00% |           0      0.00%    100.00% |           0      0.00%    100.00% |           0      0.00%    100.00%
system.ruby.L2Cache_Controller.MT_MB.L1_PUTX::total            2                      
system.ruby.L2Cache_Controller.MT_MB.Exclusive_Unblock |      173252      8.49%      8.49% |       64262      3.15%     11.63% |       58757      2.88%     14.51% |       58459      2.86%     17.38% |       57800      2.83%     20.21% |       56500      2.77%     22.98% |       55007      2.69%     25.67% |       55301      2.71%     28.38% |       59191      2.90%     31.28% |       57719      2.83%     34.11% |       60644      2.97%     37.08% |       60209      2.95%     40.03% |       56860      2.79%     42.81% |       56795      2.78%     45.59% |       56448      2.77%     48.36% |       56867      2.79%     51.14% |       59202      2.90%     54.04% |       58514      2.87%     56.91% |       59885      2.93%     59.84% |       60877      2.98%     62.83% |       60908      2.98%     65.81% |       63096      3.09%     68.90% |       64326      3.15%     72.05% |       60551      2.97%     75.02% |       61064      2.99%     78.01% |       62469      3.06%     81.07% |       60796      2.98%     84.05% |       61417      3.01%     87.06% |       64092      3.14%     90.20% |       61915      3.03%     93.23% |       70027      3.43%     96.66% |       68217      3.34%    100.00%
system.ruby.L2Cache_Controller.MT_MB.Exclusive_Unblock::total      2041427                      
system.ruby.L2Cache_Controller.MT_IIB.WB_Data |           0      0.00%      0.00% |           0      0.00%      0.00% |           0      0.00%      0.00% |           0      0.00%      0.00% |           0      0.00%      0.00% |           1     50.00%     50.00% |           0      0.00%     50.00% |           0      0.00%     50.00% |           0      0.00%     50.00% |           0      0.00%     50.00% |           0      0.00%     50.00% |           0      0.00%     50.00% |           0      0.00%     50.00% |           0      0.00%     50.00% |           0      0.00%     50.00% |           0      0.00%     50.00% |           0      0.00%     50.00% |           0      0.00%     50.00% |           0      0.00%     50.00% |           0      0.00%     50.00% |           0      0.00%     50.00% |           0      0.00%     50.00% |           0      0.00%     50.00% |           0      0.00%     50.00% |           0      0.00%     50.00% |           0      0.00%     50.00% |           0      0.00%     50.00% |           0      0.00%     50.00% |           1     50.00%    100.00% |           0      0.00%    100.00% |           0      0.00%    100.00% |           0      0.00%    100.00%
system.ruby.L2Cache_Controller.MT_IIB.WB_Data::total            2                      
system.ruby.L2Cache_Controller.MT_IIB.WB_Data_clean |          21    100.00%    100.00% |           0      0.00%    100.00% |           0      0.00%    100.00% |           0      0.00%    100.00% |           0      0.00%    100.00% |           0      0.00%    100.00% |           0      0.00%    100.00% |           0      0.00%    100.00% |           0      0.00%    100.00% |           0      0.00%    100.00% |           0      0.00%    100.00% |           0      0.00%    100.00% |           0      0.00%    100.00% |           0      0.00%    100.00% |           0      0.00%    100.00% |           0      0.00%    100.00% |           0      0.00%    100.00% |           0      0.00%    100.00% |           0      0.00%    100.00% |           0      0.00%    100.00% |           0      0.00%    100.00% |           0      0.00%    100.00% |           0      0.00%    100.00% |           0      0.00%    100.00% |           0      0.00%    100.00% |           0      0.00%    100.00% |           0      0.00%    100.00% |           0      0.00%    100.00% |           0      0.00%    100.00% |           0      0.00%    100.00% |           0      0.00%    100.00% |           0      0.00%    100.00%
system.ruby.L2Cache_Controller.MT_IIB.WB_Data_clean::total           21                      
system.ruby.L2Cache_Controller.MT_SB.Unblock |          21     91.30%     91.30% |           0      0.00%     91.30% |           0      0.00%     91.30% |           0      0.00%     91.30% |           0      0.00%     91.30% |           1      4.35%     95.65% |           0      0.00%     95.65% |           0      0.00%     95.65% |           0      0.00%     95.65% |           0      0.00%     95.65% |           0      0.00%     95.65% |           0      0.00%     95.65% |           0      0.00%     95.65% |           0      0.00%     95.65% |           0      0.00%     95.65% |           0      0.00%     95.65% |           0      0.00%     95.65% |           0      0.00%     95.65% |           0      0.00%     95.65% |           0      0.00%     95.65% |           0      0.00%     95.65% |           0      0.00%     95.65% |           0      0.00%     95.65% |           0      0.00%     95.65% |           0      0.00%     95.65% |           0      0.00%     95.65% |           0      0.00%     95.65% |           0      0.00%     95.65% |           1      4.35%    100.00% |           0      0.00%    100.00% |           0      0.00%    100.00% |           0      0.00%    100.00%
system.ruby.L2Cache_Controller.MT_SB.Unblock::total           23                      
system.ruby.SimicsNetworkPortInterface_Controller.MessageSend |      120965     21.43%     21.43% |      282225     50.00%     71.43% |       20314      3.60%     75.03% |       20949      3.71%     78.74% |       19848      3.52%     82.26% |       21606      3.83%     86.09% |       19627      3.48%     89.56% |       21441      3.80%     93.36% |       18396      3.26%     96.62% |       19079      3.38%    100.00% |           0      0.00%    100.00% |           0      0.00%    100.00% |           0      0.00%    100.00% |           0      0.00%    100.00% |           0      0.00%    100.00% |           0      0.00%    100.00% |           0      0.00%    100.00% |           0      0.00%    100.00% |           0      0.00%    100.00% |           0      0.00%    100.00% |           0      0.00%    100.00% |           0      0.00%    100.00% |           0      0.00%    100.00% |           0      0.00%    100.00% |           0      0.00%    100.00% |           0      0.00%    100.00% |           0      0.00%    100.00% |           0      0.00%    100.00% |           0      0.00%    100.00% |           0      0.00%    100.00% |           0      0.00%    100.00% |           0      0.00%    100.00%
system.ruby.SimicsNetworkPortInterface_Controller.MessageSend::total       564450                      
system.ruby.SimicsNetworkPortInterface_Controller.MessageRecv |      120965     21.43%     21.43% |      282225     50.00%     71.43% |       20314      3.60%     75.03% |       20949      3.71%     78.74% |       19848      3.52%     82.26% |       21606      3.83%     86.09% |       19627      3.48%     89.56% |       21441      3.80%     93.36% |       18396      3.26%     96.62% |       19079      3.38%    100.00% |           0      0.00%    100.00% |           0      0.00%    100.00% |           0      0.00%    100.00% |           0      0.00%    100.00% |           0      0.00%    100.00% |           0      0.00%    100.00% |           0      0.00%    100.00% |           0      0.00%    100.00% |           0      0.00%    100.00% |           0      0.00%    100.00% |           0      0.00%    100.00% |           0      0.00%    100.00% |           0      0.00%    100.00% |           0      0.00%    100.00% |           0      0.00%    100.00% |           0      0.00%    100.00% |           0      0.00%    100.00% |           0      0.00%    100.00% |           0      0.00%    100.00% |           0      0.00%    100.00% |           0      0.00%    100.00% |           0      0.00%    100.00%
system.ruby.SimicsNetworkPortInterface_Controller.MessageRecv::total       564450                      
system.ruby.SimicsNetworkPortInterface_Controller.A.MessageSend |      120965     21.43%     21.43% |      282225     50.00%     71.43% |       20314      3.60%     75.03% |       20949      3.71%     78.74% |       19848      3.52%     82.26% |       21606      3.83%     86.09% |       19627      3.48%     89.56% |       21441      3.80%     93.36% |       18396      3.26%     96.62% |       19079      3.38%    100.00% |           0      0.00%    100.00% |           0      0.00%    100.00% |           0      0.00%    100.00% |           0      0.00%    100.00% |           0      0.00%    100.00% |           0      0.00%    100.00% |           0      0.00%    100.00% |           0      0.00%    100.00% |           0      0.00%    100.00% |           0      0.00%    100.00% |           0      0.00%    100.00% |           0      0.00%    100.00% |           0      0.00%    100.00% |           0      0.00%    100.00% |           0      0.00%    100.00% |           0      0.00%    100.00% |           0      0.00%    100.00% |           0      0.00%    100.00% |           0      0.00%    100.00% |           0      0.00%    100.00% |           0      0.00%    100.00% |           0      0.00%    100.00%
system.ruby.SimicsNetworkPortInterface_Controller.A.MessageSend::total       564450                      
system.ruby.SimicsNetworkPortInterface_Controller.A.MessageRecv |      120965     21.43%     21.43% |      282225     50.00%     71.43% |       20314      3.60%     75.03% |       20949      3.71%     78.74% |       19848      3.52%     82.26% |       21606      3.83%     86.09% |       19627      3.48%     89.56% |       21441      3.80%     93.36% |       18396      3.26%     96.62% |       19079      3.38%    100.00% |           0      0.00%    100.00% |           0      0.00%    100.00% |           0      0.00%    100.00% |           0      0.00%    100.00% |           0      0.00%    100.00% |           0      0.00%    100.00% |           0      0.00%    100.00% |           0      0.00%    100.00% |           0      0.00%    100.00% |           0      0.00%    100.00% |           0      0.00%    100.00% |           0      0.00%    100.00% |           0      0.00%    100.00% |           0      0.00%    100.00% |           0      0.00%    100.00% |           0      0.00%    100.00% |           0      0.00%    100.00% |           0      0.00%    100.00% |           0      0.00%    100.00% |           0      0.00%    100.00% |           0      0.00%    100.00% |           0      0.00%    100.00%
system.ruby.SimicsNetworkPortInterface_Controller.A.MessageRecv::total       564450                      
system.switch_cpus.kern.inst.arm                    0                       # number of arm instructions executed
system.switch_cpus.kern.inst.quiesce                0                       # number of quiesce instructions executed

---------- End Simulation Statistics   ----------
