
---------- Begin Simulation Statistics ----------
sim_seconds                                  0.131445                       # Number of seconds simulated
sim_ticks                                131445234500                       # Number of ticks simulated
final_tick                               5307613313000                       # Number of ticks from beginning of simulation (restored from checkpoints and never reset)
sim_freq                                 1000000000000                       # Frequency of simulated ticks
host_inst_rate                                  33133                       # Simulator instruction rate (inst/s)
host_op_rate                                    57077                       # Simulator op (including micro ops) rate (op/s)
host_tick_rate                               99779847                       # Simulator tick rate (ticks/s)
host_mem_usage                                4260316                       # Number of bytes of host memory used
host_seconds                                  1317.35                       # Real time elapsed on the host
sim_insts                                    43647337                       # Number of instructions simulated
sim_ops                                      75190703                       # Number of ops (including micro ops) simulated
system.voltage_domain.voltage                       1                       # Voltage in Volts
system.clk_domain.clock                           500                       # Clock period in ticks
system.mem_ctrls0.bytes_read::ruby.dir_cntrl0     21451200                       # Number of bytes read from this memory
system.mem_ctrls0.bytes_read::total          21451200                       # Number of bytes read from this memory
system.mem_ctrls0.bytes_written::ruby.dir_cntrl0     13537152                       # Number of bytes written to this memory
system.mem_ctrls0.bytes_written::total       13537152                       # Number of bytes written to this memory
system.mem_ctrls0.num_reads::ruby.dir_cntrl0       335175                       # Number of read requests responded to by this memory
system.mem_ctrls0.num_reads::total             335175                       # Number of read requests responded to by this memory
system.mem_ctrls0.num_writes::ruby.dir_cntrl0       211518                       # Number of write requests responded to by this memory
system.mem_ctrls0.num_writes::total            211518                       # Number of write requests responded to by this memory
system.mem_ctrls0.bw_read::ruby.dir_cntrl0    163194962                       # Total read bandwidth from this memory (bytes/s)
system.mem_ctrls0.bw_read::total            163194962                       # Total read bandwidth from this memory (bytes/s)
system.mem_ctrls0.bw_write::ruby.dir_cntrl0    102987012                       # Write bandwidth from this memory (bytes/s)
system.mem_ctrls0.bw_write::total           102987012                       # Write bandwidth from this memory (bytes/s)
system.mem_ctrls0.bw_total::ruby.dir_cntrl0    266181974                       # Total bandwidth to/from this memory (bytes/s)
system.mem_ctrls0.bw_total::total           266181974                       # Total bandwidth to/from this memory (bytes/s)
system.mem_ctrls0.readReqs                     335175                       # Number of read requests accepted
system.mem_ctrls0.writeReqs                    211518                       # Number of write requests accepted
system.mem_ctrls0.readBursts                   335175                       # Number of DRAM read bursts, including those serviced by the write queue
system.mem_ctrls0.writeBursts                  211518                       # Number of DRAM write bursts, including those merged in the write queue
system.mem_ctrls0.bytesReadDRAM              21449792                       # Total number of bytes read from DRAM
system.mem_ctrls0.bytesReadWrQ                   1408                       # Total number of bytes read from write queue
system.mem_ctrls0.bytesWritten               13536960                       # Total number of bytes written to DRAM
system.mem_ctrls0.bytesReadSys               21451200                       # Total read bytes from the system interface side
system.mem_ctrls0.bytesWrittenSys            13537152                       # Total written bytes from the system interface side
system.mem_ctrls0.servicedByWrQ                    22                       # Number of DRAM read bursts serviced by the write queue
system.mem_ctrls0.mergedWrBursts                    0                       # Number of DRAM write bursts merged with an existing one
system.mem_ctrls0.neitherReadNorWriteReqs            0                       # Number of requests that are neither read nor write
system.mem_ctrls0.perBankRdBursts::0            20692                       # Per bank write bursts
system.mem_ctrls0.perBankRdBursts::1            21305                       # Per bank write bursts
system.mem_ctrls0.perBankRdBursts::2            20872                       # Per bank write bursts
system.mem_ctrls0.perBankRdBursts::3            21351                       # Per bank write bursts
system.mem_ctrls0.perBankRdBursts::4            20968                       # Per bank write bursts
system.mem_ctrls0.perBankRdBursts::5            21184                       # Per bank write bursts
system.mem_ctrls0.perBankRdBursts::6            21073                       # Per bank write bursts
system.mem_ctrls0.perBankRdBursts::7            21065                       # Per bank write bursts
system.mem_ctrls0.perBankRdBursts::8            20840                       # Per bank write bursts
system.mem_ctrls0.perBankRdBursts::9            21037                       # Per bank write bursts
system.mem_ctrls0.perBankRdBursts::10           20806                       # Per bank write bursts
system.mem_ctrls0.perBankRdBursts::11           21194                       # Per bank write bursts
system.mem_ctrls0.perBankRdBursts::12           20648                       # Per bank write bursts
system.mem_ctrls0.perBankRdBursts::13           20562                       # Per bank write bursts
system.mem_ctrls0.perBankRdBursts::14           20781                       # Per bank write bursts
system.mem_ctrls0.perBankRdBursts::15           20775                       # Per bank write bursts
system.mem_ctrls0.perBankWrBursts::0            13261                       # Per bank write bursts
system.mem_ctrls0.perBankWrBursts::1            13204                       # Per bank write bursts
system.mem_ctrls0.perBankWrBursts::2            13126                       # Per bank write bursts
system.mem_ctrls0.perBankWrBursts::3            13369                       # Per bank write bursts
system.mem_ctrls0.perBankWrBursts::4            13196                       # Per bank write bursts
system.mem_ctrls0.perBankWrBursts::5            13317                       # Per bank write bursts
system.mem_ctrls0.perBankWrBursts::6            13250                       # Per bank write bursts
system.mem_ctrls0.perBankWrBursts::7            13443                       # Per bank write bursts
system.mem_ctrls0.perBankWrBursts::8            13159                       # Per bank write bursts
system.mem_ctrls0.perBankWrBursts::9            13355                       # Per bank write bursts
system.mem_ctrls0.perBankWrBursts::10           13141                       # Per bank write bursts
system.mem_ctrls0.perBankWrBursts::11           13072                       # Per bank write bursts
system.mem_ctrls0.perBankWrBursts::12           13061                       # Per bank write bursts
system.mem_ctrls0.perBankWrBursts::13           13071                       # Per bank write bursts
system.mem_ctrls0.perBankWrBursts::14           13355                       # Per bank write bursts
system.mem_ctrls0.perBankWrBursts::15           13135                       # Per bank write bursts
system.mem_ctrls0.numRdRetry                     8507                       # Number of times read queue was full causing retry
system.mem_ctrls0.numWrRetry                     2758                       # Number of times write queue was full causing retry
system.mem_ctrls0.totGap                 131444688500                       # Total gap between requests
system.mem_ctrls0.readPktSize::0                    0                       # Read request sizes (log2)
system.mem_ctrls0.readPktSize::1                    0                       # Read request sizes (log2)
system.mem_ctrls0.readPktSize::2                    0                       # Read request sizes (log2)
system.mem_ctrls0.readPktSize::3                    0                       # Read request sizes (log2)
system.mem_ctrls0.readPktSize::4                    0                       # Read request sizes (log2)
system.mem_ctrls0.readPktSize::5                    0                       # Read request sizes (log2)
system.mem_ctrls0.readPktSize::6               335175                       # Read request sizes (log2)
system.mem_ctrls0.writePktSize::0                   0                       # Write request sizes (log2)
system.mem_ctrls0.writePktSize::1                   0                       # Write request sizes (log2)
system.mem_ctrls0.writePktSize::2                   0                       # Write request sizes (log2)
system.mem_ctrls0.writePktSize::3                   0                       # Write request sizes (log2)
system.mem_ctrls0.writePktSize::4                   0                       # Write request sizes (log2)
system.mem_ctrls0.writePktSize::5                   0                       # Write request sizes (log2)
system.mem_ctrls0.writePktSize::6              211518                       # Write request sizes (log2)
system.mem_ctrls0.rdQLenPdf::0                 185468                       # What read queue length does an incoming req see
system.mem_ctrls0.rdQLenPdf::1                  17412                       # What read queue length does an incoming req see
system.mem_ctrls0.rdQLenPdf::2                  14591                       # What read queue length does an incoming req see
system.mem_ctrls0.rdQLenPdf::3                  12630                       # What read queue length does an incoming req see
system.mem_ctrls0.rdQLenPdf::4                  11557                       # What read queue length does an incoming req see
system.mem_ctrls0.rdQLenPdf::5                  10996                       # What read queue length does an incoming req see
system.mem_ctrls0.rdQLenPdf::6                  10129                       # What read queue length does an incoming req see
system.mem_ctrls0.rdQLenPdf::7                   8971                       # What read queue length does an incoming req see
system.mem_ctrls0.rdQLenPdf::8                   7933                       # What read queue length does an incoming req see
system.mem_ctrls0.rdQLenPdf::9                   7163                       # What read queue length does an incoming req see
system.mem_ctrls0.rdQLenPdf::10                  5983                       # What read queue length does an incoming req see
system.mem_ctrls0.rdQLenPdf::11                  5044                       # What read queue length does an incoming req see
system.mem_ctrls0.rdQLenPdf::12                  4420                       # What read queue length does an incoming req see
system.mem_ctrls0.rdQLenPdf::13                  3929                       # What read queue length does an incoming req see
system.mem_ctrls0.rdQLenPdf::14                  3246                       # What read queue length does an incoming req see
system.mem_ctrls0.rdQLenPdf::15                  2718                       # What read queue length does an incoming req see
system.mem_ctrls0.rdQLenPdf::16                  2238                       # What read queue length does an incoming req see
system.mem_ctrls0.rdQLenPdf::17                  1884                       # What read queue length does an incoming req see
system.mem_ctrls0.rdQLenPdf::18                  1651                       # What read queue length does an incoming req see
system.mem_ctrls0.rdQLenPdf::19                  1378                       # What read queue length does an incoming req see
system.mem_ctrls0.rdQLenPdf::20                  1162                       # What read queue length does an incoming req see
system.mem_ctrls0.rdQLenPdf::21                  1015                       # What read queue length does an incoming req see
system.mem_ctrls0.rdQLenPdf::22                   857                       # What read queue length does an incoming req see
system.mem_ctrls0.rdQLenPdf::23                   731                       # What read queue length does an incoming req see
system.mem_ctrls0.rdQLenPdf::24                   596                       # What read queue length does an incoming req see
system.mem_ctrls0.rdQLenPdf::25                   485                       # What read queue length does an incoming req see
system.mem_ctrls0.rdQLenPdf::26                   433                       # What read queue length does an incoming req see
system.mem_ctrls0.rdQLenPdf::27                   400                       # What read queue length does an incoming req see
system.mem_ctrls0.rdQLenPdf::28                   311                       # What read queue length does an incoming req see
system.mem_ctrls0.rdQLenPdf::29                   283                       # What read queue length does an incoming req see
system.mem_ctrls0.rdQLenPdf::30                   346                       # What read queue length does an incoming req see
system.mem_ctrls0.rdQLenPdf::31                  9193                       # What read queue length does an incoming req see
system.mem_ctrls0.wrQLenPdf::0                  38666                       # What write queue length does an incoming req see
system.mem_ctrls0.wrQLenPdf::1                  39967                       # What write queue length does an incoming req see
system.mem_ctrls0.wrQLenPdf::2                  40503                       # What write queue length does an incoming req see
system.mem_ctrls0.wrQLenPdf::3                  40594                       # What write queue length does an incoming req see
system.mem_ctrls0.wrQLenPdf::4                  40259                       # What write queue length does an incoming req see
system.mem_ctrls0.wrQLenPdf::5                   3258                       # What write queue length does an incoming req see
system.mem_ctrls0.wrQLenPdf::6                   3041                       # What write queue length does an incoming req see
system.mem_ctrls0.wrQLenPdf::7                   5230                       # What write queue length does an incoming req see
system.mem_ctrls0.bytesPerActivate::samples       153115                       # Bytes accessed per row activation
system.mem_ctrls0.bytesPerActivate::mean   228.489384                       # Bytes accessed per row activation
system.mem_ctrls0.bytesPerActivate::gmean   166.734710                       # Bytes accessed per row activation
system.mem_ctrls0.bytesPerActivate::stdev   192.904165                       # Bytes accessed per row activation
system.mem_ctrls0.bytesPerActivate::0-127        52577     34.34%     34.34% # Bytes accessed per row activation
system.mem_ctrls0.bytesPerActivate::128-255        31031     20.27%     54.60% # Bytes accessed per row activation
system.mem_ctrls0.bytesPerActivate::256-383        52454     34.26%     88.86% # Bytes accessed per row activation
system.mem_ctrls0.bytesPerActivate::384-511         5756      3.76%     92.62% # Bytes accessed per row activation
system.mem_ctrls0.bytesPerActivate::512-639         3970      2.59%     95.21% # Bytes accessed per row activation
system.mem_ctrls0.bytesPerActivate::640-767         2105      1.37%     96.59% # Bytes accessed per row activation
system.mem_ctrls0.bytesPerActivate::768-895         1380      0.90%     97.49% # Bytes accessed per row activation
system.mem_ctrls0.bytesPerActivate::896-1023         1048      0.68%     98.18% # Bytes accessed per row activation
system.mem_ctrls0.bytesPerActivate::1024-1151         2794      1.82%    100.00% # Bytes accessed per row activation
system.mem_ctrls0.bytesPerActivate::total       153115                       # Bytes accessed per row activation
system.mem_ctrls0.rdPerTurnAround::samples        38924                       # Reads before turning the bus around for writes
system.mem_ctrls0.rdPerTurnAround::mean      8.610009                       # Reads before turning the bus around for writes
system.mem_ctrls0.rdPerTurnAround::stdev    23.146585                       # Reads before turning the bus around for writes
system.mem_ctrls0.rdPerTurnAround::0-127        38909     99.96%     99.96% # Reads before turning the bus around for writes
system.mem_ctrls0.rdPerTurnAround::128-255           14      0.04%    100.00% # Reads before turning the bus around for writes
system.mem_ctrls0.rdPerTurnAround::3968-4095            1      0.00%    100.00% # Reads before turning the bus around for writes
system.mem_ctrls0.rdPerTurnAround::total        38924                       # Reads before turning the bus around for writes
system.mem_ctrls0.wrPerTurnAround::samples        38924                       # Writes before turning the bus around for reads
system.mem_ctrls0.wrPerTurnAround::mean      5.434051                       # Writes before turning the bus around for reads
system.mem_ctrls0.wrPerTurnAround::gmean     5.297378                       # Writes before turning the bus around for reads
system.mem_ctrls0.wrPerTurnAround::stdev     1.642492                       # Writes before turning the bus around for reads
system.mem_ctrls0.wrPerTurnAround::4-7          36771     94.47%     94.47% # Writes before turning the bus around for reads
system.mem_ctrls0.wrPerTurnAround::8-11          1269      3.26%     97.73% # Writes before turning the bus around for reads
system.mem_ctrls0.wrPerTurnAround::12-15          447      1.15%     98.88% # Writes before turning the bus around for reads
system.mem_ctrls0.wrPerTurnAround::16-19          437      1.12%    100.00% # Writes before turning the bus around for reads
system.mem_ctrls0.wrPerTurnAround::total        38924                       # Writes before turning the bus around for reads
system.mem_ctrls0.totQLat                 14996659188                       # Total ticks spent queuing
system.mem_ctrls0.totMemAccLat            21280777938                       # Total ticks spent from burst creation until serviced by the DRAM
system.mem_ctrls0.totBusLat                1675765000                       # Total ticks spent in databus transfers
system.mem_ctrls0.avgQLat                    44745.71                       # Average queueing delay per DRAM burst
system.mem_ctrls0.avgBusLat                   5000.00                       # Average bus latency per DRAM burst
system.mem_ctrls0.avgMemAccLat               63495.71                       # Average memory access latency per DRAM burst
system.mem_ctrls0.avgRdBW                      163.18                       # Average DRAM read bandwidth in MiByte/s
system.mem_ctrls0.avgWrBW                      102.99                       # Average achieved write bandwidth in MiByte/s
system.mem_ctrls0.avgRdBWSys                   163.19                       # Average system read bandwidth in MiByte/s
system.mem_ctrls0.avgWrBWSys                   102.99                       # Average system write bandwidth in MiByte/s
system.mem_ctrls0.peakBW                     12800.00                       # Theoretical peak bandwidth in MiByte/s
system.mem_ctrls0.busUtil                        2.08                       # Data bus utilization in percentage
system.mem_ctrls0.busUtilRead                    1.27                       # Data bus utilization in percentage for reads
system.mem_ctrls0.busUtilWrite                   0.80                       # Data bus utilization in percentage for writes
system.mem_ctrls0.avgRdQLen                      1.13                       # Average read queue length when enqueuing
system.mem_ctrls0.avgWrQLen                      2.96                       # Average write queue length when enqueuing
system.mem_ctrls0.readRowHits                  254228                       # Number of row buffer hits during reads
system.mem_ctrls0.writeRowHits                 139314                       # Number of row buffer hits during writes
system.mem_ctrls0.readRowHitRate                75.85                       # Row buffer hit rate for reads
system.mem_ctrls0.writeRowHitRate               65.86                       # Row buffer hit rate for writes
system.mem_ctrls0.avgGap                    240436.02                       # Average gap between requests
system.mem_ctrls0.pageHitRate                   71.99                       # Row buffer hit rate, read and write combined
system.mem_ctrls0.memoryStateTime::IDLE   28041537250                       # Time in different power states
system.mem_ctrls0.memoryStateTime::REF     4389060000                       # Time in different power states
system.mem_ctrls0.memoryStateTime::PRE_PDN            0                       # Time in different power states
system.mem_ctrls0.memoryStateTime::ACT    99009362750                       # Time in different power states
system.mem_ctrls0.memoryStateTime::ACT_PDN            0                       # Time in different power states
system.mem_ctrls0.actEnergy::0              585287640                       # Energy for activate commands per rank (pJ)
system.mem_ctrls0.actEnergy::1              572201280                       # Energy for activate commands per rank (pJ)
system.mem_ctrls0.preEnergy::0              319353375                       # Energy for precharge commands per rank (pJ)
system.mem_ctrls0.preEnergy::1              312213000                       # Energy for precharge commands per rank (pJ)
system.mem_ctrls0.readEnergy::0            1314042600                       # Energy for read commands per rank (pJ)
system.mem_ctrls0.readEnergy::1            1299745200                       # Energy for read commands per rank (pJ)
system.mem_ctrls0.writeEnergy::0            687949200                       # Energy for write commands per rank (pJ)
system.mem_ctrls0.writeEnergy::1            682493040                       # Energy for write commands per rank (pJ)
system.mem_ctrls0.refreshEnergy::0         8585001360                       # Energy for refresh commands per rank (pJ)
system.mem_ctrls0.refreshEnergy::1         8585001360                       # Energy for refresh commands per rank (pJ)
system.mem_ctrls0.actBackEnergy::0        50205341790                       # Energy for active background per rank (pJ)
system.mem_ctrls0.actBackEnergy::1        49773672810                       # Energy for active background per rank (pJ)
system.mem_ctrls0.preBackEnergy::0        34824194250                       # Energy for precharge background per rank (pJ)
system.mem_ctrls0.preBackEnergy::1        35202851250                       # Energy for precharge background per rank (pJ)
system.mem_ctrls0.totalEnergy::0          96521170215                       # Total energy per rank (pJ)
system.mem_ctrls0.totalEnergy::1          96428177940                       # Total energy per rank (pJ)
system.mem_ctrls0.averagePower::0          734.336653                       # Core power per rank (mW)
system.mem_ctrls0.averagePower::1          733.629164                       # Core power per rank (mW)
system.mem_ctrls1.bytes_read::ruby.dir_cntrl1     20798464                       # Number of bytes read from this memory
system.mem_ctrls1.bytes_read::total          20798464                       # Number of bytes read from this memory
system.mem_ctrls1.bytes_written::ruby.dir_cntrl1     12910400                       # Number of bytes written to this memory
system.mem_ctrls1.bytes_written::total       12910400                       # Number of bytes written to this memory
system.mem_ctrls1.num_reads::ruby.dir_cntrl1       324976                       # Number of read requests responded to by this memory
system.mem_ctrls1.num_reads::total             324976                       # Number of read requests responded to by this memory
system.mem_ctrls1.num_writes::ruby.dir_cntrl1       201725                       # Number of write requests responded to by this memory
system.mem_ctrls1.num_writes::total            201725                       # Number of write requests responded to by this memory
system.mem_ctrls1.bw_read::ruby.dir_cntrl1    158229122                       # Total read bandwidth from this memory (bytes/s)
system.mem_ctrls1.bw_read::total            158229122                       # Total read bandwidth from this memory (bytes/s)
system.mem_ctrls1.bw_write::ruby.dir_cntrl1     98218852                       # Write bandwidth from this memory (bytes/s)
system.mem_ctrls1.bw_write::total            98218852                       # Write bandwidth from this memory (bytes/s)
system.mem_ctrls1.bw_total::ruby.dir_cntrl1    256447973                       # Total bandwidth to/from this memory (bytes/s)
system.mem_ctrls1.bw_total::total           256447973                       # Total bandwidth to/from this memory (bytes/s)
system.mem_ctrls1.readReqs                     324976                       # Number of read requests accepted
system.mem_ctrls1.writeReqs                    201725                       # Number of write requests accepted
system.mem_ctrls1.readBursts                   324976                       # Number of DRAM read bursts, including those serviced by the write queue
system.mem_ctrls1.writeBursts                  201725                       # Number of DRAM write bursts, including those merged in the write queue
system.mem_ctrls1.bytesReadDRAM              20797312                       # Total number of bytes read from DRAM
system.mem_ctrls1.bytesReadWrQ                   1152                       # Total number of bytes read from write queue
system.mem_ctrls1.bytesWritten               12910400                       # Total number of bytes written to DRAM
system.mem_ctrls1.bytesReadSys               20798464                       # Total read bytes from the system interface side
system.mem_ctrls1.bytesWrittenSys            12910400                       # Total written bytes from the system interface side
system.mem_ctrls1.servicedByWrQ                    18                       # Number of DRAM read bursts serviced by the write queue
system.mem_ctrls1.mergedWrBursts                    0                       # Number of DRAM write bursts merged with an existing one
system.mem_ctrls1.neitherReadNorWriteReqs            0                       # Number of requests that are neither read nor write
system.mem_ctrls1.perBankRdBursts::0            20060                       # Per bank write bursts
system.mem_ctrls1.perBankRdBursts::1            20698                       # Per bank write bursts
system.mem_ctrls1.perBankRdBursts::2            20233                       # Per bank write bursts
system.mem_ctrls1.perBankRdBursts::3            20683                       # Per bank write bursts
system.mem_ctrls1.perBankRdBursts::4            20374                       # Per bank write bursts
system.mem_ctrls1.perBankRdBursts::5            20539                       # Per bank write bursts
system.mem_ctrls1.perBankRdBursts::6            20434                       # Per bank write bursts
system.mem_ctrls1.perBankRdBursts::7            20516                       # Per bank write bursts
system.mem_ctrls1.perBankRdBursts::8            20188                       # Per bank write bursts
system.mem_ctrls1.perBankRdBursts::9            20382                       # Per bank write bursts
system.mem_ctrls1.perBankRdBursts::10           20149                       # Per bank write bursts
system.mem_ctrls1.perBankRdBursts::11           20570                       # Per bank write bursts
system.mem_ctrls1.perBankRdBursts::12           20017                       # Per bank write bursts
system.mem_ctrls1.perBankRdBursts::13           19895                       # Per bank write bursts
system.mem_ctrls1.perBankRdBursts::14           20087                       # Per bank write bursts
system.mem_ctrls1.perBankRdBursts::15           20133                       # Per bank write bursts
system.mem_ctrls1.perBankWrBursts::0            12651                       # Per bank write bursts
system.mem_ctrls1.perBankWrBursts::1            12613                       # Per bank write bursts
system.mem_ctrls1.perBankWrBursts::2            12518                       # Per bank write bursts
system.mem_ctrls1.perBankWrBursts::3            12757                       # Per bank write bursts
system.mem_ctrls1.perBankWrBursts::4            12596                       # Per bank write bursts
system.mem_ctrls1.perBankWrBursts::5            12718                       # Per bank write bursts
system.mem_ctrls1.perBankWrBursts::6            12630                       # Per bank write bursts
system.mem_ctrls1.perBankWrBursts::7            12827                       # Per bank write bursts
system.mem_ctrls1.perBankWrBursts::8            12540                       # Per bank write bursts
system.mem_ctrls1.perBankWrBursts::9            12731                       # Per bank write bursts
system.mem_ctrls1.perBankWrBursts::10           12533                       # Per bank write bursts
system.mem_ctrls1.perBankWrBursts::11           12460                       # Per bank write bursts
system.mem_ctrls1.perBankWrBursts::12           12461                       # Per bank write bursts
system.mem_ctrls1.perBankWrBursts::13           12461                       # Per bank write bursts
system.mem_ctrls1.perBankWrBursts::14           12703                       # Per bank write bursts
system.mem_ctrls1.perBankWrBursts::15           12526                       # Per bank write bursts
system.mem_ctrls1.numRdRetry                     4559                       # Number of times read queue was full causing retry
system.mem_ctrls1.numWrRetry                     2251                       # Number of times write queue was full causing retry
system.mem_ctrls1.totGap                 131444410500                       # Total gap between requests
system.mem_ctrls1.readPktSize::0                    0                       # Read request sizes (log2)
system.mem_ctrls1.readPktSize::1                    0                       # Read request sizes (log2)
system.mem_ctrls1.readPktSize::2                    0                       # Read request sizes (log2)
system.mem_ctrls1.readPktSize::3                    0                       # Read request sizes (log2)
system.mem_ctrls1.readPktSize::4                    0                       # Read request sizes (log2)
system.mem_ctrls1.readPktSize::5                    0                       # Read request sizes (log2)
system.mem_ctrls1.readPktSize::6               324976                       # Read request sizes (log2)
system.mem_ctrls1.writePktSize::0                   0                       # Write request sizes (log2)
system.mem_ctrls1.writePktSize::1                   0                       # Write request sizes (log2)
system.mem_ctrls1.writePktSize::2                   0                       # Write request sizes (log2)
system.mem_ctrls1.writePktSize::3                   0                       # Write request sizes (log2)
system.mem_ctrls1.writePktSize::4                   0                       # Write request sizes (log2)
system.mem_ctrls1.writePktSize::5                   0                       # Write request sizes (log2)
system.mem_ctrls1.writePktSize::6              201725                       # Write request sizes (log2)
system.mem_ctrls1.rdQLenPdf::0                 181490                       # What read queue length does an incoming req see
system.mem_ctrls1.rdQLenPdf::1                  14739                       # What read queue length does an incoming req see
system.mem_ctrls1.rdQLenPdf::2                  14480                       # What read queue length does an incoming req see
system.mem_ctrls1.rdQLenPdf::3                  13537                       # What read queue length does an incoming req see
system.mem_ctrls1.rdQLenPdf::4                  12340                       # What read queue length does an incoming req see
system.mem_ctrls1.rdQLenPdf::5                  11148                       # What read queue length does an incoming req see
system.mem_ctrls1.rdQLenPdf::6                  10014                       # What read queue length does an incoming req see
system.mem_ctrls1.rdQLenPdf::7                   8817                       # What read queue length does an incoming req see
system.mem_ctrls1.rdQLenPdf::8                   7815                       # What read queue length does an incoming req see
system.mem_ctrls1.rdQLenPdf::9                   6758                       # What read queue length does an incoming req see
system.mem_ctrls1.rdQLenPdf::10                  5823                       # What read queue length does an incoming req see
system.mem_ctrls1.rdQLenPdf::11                  4871                       # What read queue length does an incoming req see
system.mem_ctrls1.rdQLenPdf::12                  4185                       # What read queue length does an incoming req see
system.mem_ctrls1.rdQLenPdf::13                  3664                       # What read queue length does an incoming req see
system.mem_ctrls1.rdQLenPdf::14                  3011                       # What read queue length does an incoming req see
system.mem_ctrls1.rdQLenPdf::15                  2541                       # What read queue length does an incoming req see
system.mem_ctrls1.rdQLenPdf::16                  2201                       # What read queue length does an incoming req see
system.mem_ctrls1.rdQLenPdf::17                  1907                       # What read queue length does an incoming req see
system.mem_ctrls1.rdQLenPdf::18                  1608                       # What read queue length does an incoming req see
system.mem_ctrls1.rdQLenPdf::19                  1365                       # What read queue length does an incoming req see
system.mem_ctrls1.rdQLenPdf::20                  1160                       # What read queue length does an incoming req see
system.mem_ctrls1.rdQLenPdf::21                   940                       # What read queue length does an incoming req see
system.mem_ctrls1.rdQLenPdf::22                   823                       # What read queue length does an incoming req see
system.mem_ctrls1.rdQLenPdf::23                   748                       # What read queue length does an incoming req see
system.mem_ctrls1.rdQLenPdf::24                   671                       # What read queue length does an incoming req see
system.mem_ctrls1.rdQLenPdf::25                   569                       # What read queue length does an incoming req see
system.mem_ctrls1.rdQLenPdf::26                   520                       # What read queue length does an incoming req see
system.mem_ctrls1.rdQLenPdf::27                   535                       # What read queue length does an incoming req see
system.mem_ctrls1.rdQLenPdf::28                   498                       # What read queue length does an incoming req see
system.mem_ctrls1.rdQLenPdf::29                   457                       # What read queue length does an incoming req see
system.mem_ctrls1.rdQLenPdf::30                   492                       # What read queue length does an incoming req see
system.mem_ctrls1.rdQLenPdf::31                  5231                       # What read queue length does an incoming req see
system.mem_ctrls1.wrQLenPdf::0                  36807                       # What write queue length does an incoming req see
system.mem_ctrls1.wrQLenPdf::1                  38173                       # What write queue length does an incoming req see
system.mem_ctrls1.wrQLenPdf::2                  38528                       # What write queue length does an incoming req see
system.mem_ctrls1.wrQLenPdf::3                  38762                       # What write queue length does an incoming req see
system.mem_ctrls1.wrQLenPdf::4                  38693                       # What write queue length does an incoming req see
system.mem_ctrls1.wrQLenPdf::5                   3324                       # What write queue length does an incoming req see
system.mem_ctrls1.wrQLenPdf::6                   2973                       # What write queue length does an incoming req see
system.mem_ctrls1.wrQLenPdf::7                   4465                       # What write queue length does an incoming req see
system.mem_ctrls1.bytesPerActivate::samples       126248                       # Bytes accessed per row activation
system.mem_ctrls1.bytesPerActivate::mean   266.982321                       # Bytes accessed per row activation
system.mem_ctrls1.bytesPerActivate::gmean   205.235697                       # Bytes accessed per row activation
system.mem_ctrls1.bytesPerActivate::stdev   202.280298                       # Bytes accessed per row activation
system.mem_ctrls1.bytesPerActivate::0-127        25941     20.55%     20.55% # Bytes accessed per row activation
system.mem_ctrls1.bytesPerActivate::128-255        30150     23.88%     44.43% # Bytes accessed per row activation
system.mem_ctrls1.bytesPerActivate::256-383        52243     41.38%     85.81% # Bytes accessed per row activation
system.mem_ctrls1.bytesPerActivate::384-511         5083      4.03%     89.84% # Bytes accessed per row activation
system.mem_ctrls1.bytesPerActivate::512-639         4580      3.63%     93.46% # Bytes accessed per row activation
system.mem_ctrls1.bytesPerActivate::640-767         2227      1.76%     95.23% # Bytes accessed per row activation
system.mem_ctrls1.bytesPerActivate::768-895         1503      1.19%     96.42% # Bytes accessed per row activation
system.mem_ctrls1.bytesPerActivate::896-1023         1138      0.90%     97.32% # Bytes accessed per row activation
system.mem_ctrls1.bytesPerActivate::1024-1151         3383      2.68%    100.00% # Bytes accessed per row activation
system.mem_ctrls1.bytesPerActivate::total       126248                       # Bytes accessed per row activation
system.mem_ctrls1.rdPerTurnAround::samples        37080                       # Reads before turning the bus around for writes
system.mem_ctrls1.rdPerTurnAround::mean      8.763323                       # Reads before turning the bus around for writes
system.mem_ctrls1.rdPerTurnAround::stdev    20.522131                       # Reads before turning the bus around for writes
system.mem_ctrls1.rdPerTurnAround::0-127        37044     99.90%     99.90% # Reads before turning the bus around for writes
system.mem_ctrls1.rdPerTurnAround::128-255           34      0.09%     99.99% # Reads before turning the bus around for writes
system.mem_ctrls1.rdPerTurnAround::1152-1279            1      0.00%    100.00% # Reads before turning the bus around for writes
system.mem_ctrls1.rdPerTurnAround::2816-2943            1      0.00%    100.00% # Reads before turning the bus around for writes
system.mem_ctrls1.rdPerTurnAround::total        37080                       # Reads before turning the bus around for writes
system.mem_ctrls1.wrPerTurnAround::samples        37080                       # Writes before turning the bus around for reads
system.mem_ctrls1.wrPerTurnAround::mean      5.440264                       # Writes before turning the bus around for reads
system.mem_ctrls1.wrPerTurnAround::gmean     5.297624                       # Writes before turning the bus around for reads
system.mem_ctrls1.wrPerTurnAround::stdev     1.669548                       # Writes before turning the bus around for reads
system.mem_ctrls1.wrPerTurnAround::4-7          34749     93.71%     93.71% # Writes before turning the bus around for reads
system.mem_ctrls1.wrPerTurnAround::8-11          1465      3.95%     97.66% # Writes before turning the bus around for reads
system.mem_ctrls1.wrPerTurnAround::12-15          464      1.25%     98.92% # Writes before turning the bus around for reads
system.mem_ctrls1.wrPerTurnAround::16-19          402      1.08%    100.00% # Writes before turning the bus around for reads
system.mem_ctrls1.wrPerTurnAround::total        37080                       # Writes before turning the bus around for reads
system.mem_ctrls1.totQLat                 13203690403                       # Total ticks spent queuing
system.mem_ctrls1.totMemAccLat            19296652903                       # Total ticks spent from burst creation until serviced by the DRAM
system.mem_ctrls1.totBusLat                1624790000                       # Total ticks spent in databus transfers
system.mem_ctrls1.avgQLat                    40631.99                       # Average queueing delay per DRAM burst
system.mem_ctrls1.avgBusLat                   5000.00                       # Average bus latency per DRAM burst
system.mem_ctrls1.avgMemAccLat               59381.99                       # Average memory access latency per DRAM burst
system.mem_ctrls1.avgRdBW                      158.22                       # Average DRAM read bandwidth in MiByte/s
system.mem_ctrls1.avgWrBW                       98.22                       # Average achieved write bandwidth in MiByte/s
system.mem_ctrls1.avgRdBWSys                   158.23                       # Average system read bandwidth in MiByte/s
system.mem_ctrls1.avgWrBWSys                    98.22                       # Average system write bandwidth in MiByte/s
system.mem_ctrls1.peakBW                     12800.00                       # Theoretical peak bandwidth in MiByte/s
system.mem_ctrls1.busUtil                        2.00                       # Data bus utilization in percentage
system.mem_ctrls1.busUtilRead                    1.24                       # Data bus utilization in percentage for reads
system.mem_ctrls1.busUtilWrite                   0.77                       # Data bus utilization in percentage for writes
system.mem_ctrls1.avgRdQLen                      1.12                       # Average read queue length when enqueuing
system.mem_ctrls1.avgWrQLen                      2.97                       # Average write queue length when enqueuing
system.mem_ctrls1.readRowHits                  255290                       # Number of row buffer hits during reads
system.mem_ctrls1.writeRowHits                 145138                       # Number of row buffer hits during writes
system.mem_ctrls1.readRowHitRate                78.56                       # Row buffer hit rate for reads
system.mem_ctrls1.writeRowHitRate               71.95                       # Row buffer hit rate for writes
system.mem_ctrls1.avgGap                    249561.73                       # Average gap between requests
system.mem_ctrls1.pageHitRate                   76.03                       # Row buffer hit rate, read and write combined
system.mem_ctrls1.memoryStateTime::IDLE   28549207750                       # Time in different power states
system.mem_ctrls1.memoryStateTime::REF     4389060000                       # Time in different power states
system.mem_ctrls1.memoryStateTime::PRE_PDN            0                       # Time in different power states
system.mem_ctrls1.memoryStateTime::ACT    98501702500                       # Time in different power states
system.mem_ctrls1.memoryStateTime::ACT_PDN            0                       # Time in different power states
system.mem_ctrls1.actEnergy::0              484444800                       # Energy for activate commands per rank (pJ)
system.mem_ctrls1.actEnergy::1              469952280                       # Energy for activate commands per rank (pJ)
system.mem_ctrls1.preEnergy::0              264330000                       # Energy for precharge commands per rank (pJ)
system.mem_ctrls1.preEnergy::1              256422375                       # Energy for precharge commands per rank (pJ)
system.mem_ctrls1.readEnergy::0            1275261000                       # Energy for read commands per rank (pJ)
system.mem_ctrls1.readEnergy::1            1259037000                       # Energy for read commands per rank (pJ)
system.mem_ctrls1.writeEnergy::0            656488800                       # Energy for write commands per rank (pJ)
system.mem_ctrls1.writeEnergy::1            650494800                       # Energy for write commands per rank (pJ)
system.mem_ctrls1.refreshEnergy::0         8585001360                       # Energy for refresh commands per rank (pJ)
system.mem_ctrls1.refreshEnergy::1         8585001360                       # Energy for refresh commands per rank (pJ)
system.mem_ctrls1.actBackEnergy::0        49643830800                       # Energy for active background per rank (pJ)
system.mem_ctrls1.actBackEnergy::1        48704550030                       # Energy for active background per rank (pJ)
system.mem_ctrls1.preBackEnergy::0        35316753750                       # Energy for precharge background per rank (pJ)
system.mem_ctrls1.preBackEnergy::1        36140684250                       # Energy for precharge background per rank (pJ)
system.mem_ctrls1.totalEnergy::0          96226110510                       # Total energy per rank (pJ)
system.mem_ctrls1.totalEnergy::1          96066142095                       # Total energy per rank (pJ)
system.mem_ctrls1.averagePower::0          732.091772                       # Core power per rank (mW)
system.mem_ctrls1.averagePower::1          730.874727                       # Core power per rank (mW)
system.mem_ctrls2.bytes_read::ruby.dir_cntrl2     20797184                       # Number of bytes read from this memory
system.mem_ctrls2.bytes_read::total          20797184                       # Number of bytes read from this memory
system.mem_ctrls2.bytes_written::ruby.dir_cntrl2     12910848                       # Number of bytes written to this memory
system.mem_ctrls2.bytes_written::total       12910848                       # Number of bytes written to this memory
system.mem_ctrls2.num_reads::ruby.dir_cntrl2       324956                       # Number of read requests responded to by this memory
system.mem_ctrls2.num_reads::total             324956                       # Number of read requests responded to by this memory
system.mem_ctrls2.num_writes::ruby.dir_cntrl2       201732                       # Number of write requests responded to by this memory
system.mem_ctrls2.num_writes::total            201732                       # Number of write requests responded to by this memory
system.mem_ctrls2.bw_read::ruby.dir_cntrl2    158219384                       # Total read bandwidth from this memory (bytes/s)
system.mem_ctrls2.bw_read::total            158219384                       # Total read bandwidth from this memory (bytes/s)
system.mem_ctrls2.bw_write::ruby.dir_cntrl2     98222260                       # Write bandwidth from this memory (bytes/s)
system.mem_ctrls2.bw_write::total            98222260                       # Write bandwidth from this memory (bytes/s)
system.mem_ctrls2.bw_total::ruby.dir_cntrl2    256441644                       # Total bandwidth to/from this memory (bytes/s)
system.mem_ctrls2.bw_total::total           256441644                       # Total bandwidth to/from this memory (bytes/s)
system.mem_ctrls2.readReqs                     324956                       # Number of read requests accepted
system.mem_ctrls2.writeReqs                    201732                       # Number of write requests accepted
system.mem_ctrls2.readBursts                   324956                       # Number of DRAM read bursts, including those serviced by the write queue
system.mem_ctrls2.writeBursts                  201732                       # Number of DRAM write bursts, including those merged in the write queue
system.mem_ctrls2.bytesReadDRAM              20796224                       # Total number of bytes read from DRAM
system.mem_ctrls2.bytesReadWrQ                    960                       # Total number of bytes read from write queue
system.mem_ctrls2.bytesWritten               12910656                       # Total number of bytes written to DRAM
system.mem_ctrls2.bytesReadSys               20797184                       # Total read bytes from the system interface side
system.mem_ctrls2.bytesWrittenSys            12910848                       # Total written bytes from the system interface side
system.mem_ctrls2.servicedByWrQ                    15                       # Number of DRAM read bursts serviced by the write queue
system.mem_ctrls2.mergedWrBursts                    0                       # Number of DRAM write bursts merged with an existing one
system.mem_ctrls2.neitherReadNorWriteReqs            0                       # Number of requests that are neither read nor write
system.mem_ctrls2.perBankRdBursts::0            20056                       # Per bank write bursts
system.mem_ctrls2.perBankRdBursts::1            20679                       # Per bank write bursts
system.mem_ctrls2.perBankRdBursts::2            20244                       # Per bank write bursts
system.mem_ctrls2.perBankRdBursts::3            20730                       # Per bank write bursts
system.mem_ctrls2.perBankRdBursts::4            20379                       # Per bank write bursts
system.mem_ctrls2.perBankRdBursts::5            20526                       # Per bank write bursts
system.mem_ctrls2.perBankRdBursts::6            20413                       # Per bank write bursts
system.mem_ctrls2.perBankRdBursts::7            20492                       # Per bank write bursts
system.mem_ctrls2.perBankRdBursts::8            20154                       # Per bank write bursts
system.mem_ctrls2.perBankRdBursts::9            20392                       # Per bank write bursts
system.mem_ctrls2.perBankRdBursts::10           20158                       # Per bank write bursts
system.mem_ctrls2.perBankRdBursts::11           20587                       # Per bank write bursts
system.mem_ctrls2.perBankRdBursts::12           20032                       # Per bank write bursts
system.mem_ctrls2.perBankRdBursts::13           19853                       # Per bank write bursts
system.mem_ctrls2.perBankRdBursts::14           20078                       # Per bank write bursts
system.mem_ctrls2.perBankRdBursts::15           20168                       # Per bank write bursts
system.mem_ctrls2.perBankWrBursts::0            12645                       # Per bank write bursts
system.mem_ctrls2.perBankWrBursts::1            12612                       # Per bank write bursts
system.mem_ctrls2.perBankWrBursts::2            12514                       # Per bank write bursts
system.mem_ctrls2.perBankWrBursts::3            12764                       # Per bank write bursts
system.mem_ctrls2.perBankWrBursts::4            12596                       # Per bank write bursts
system.mem_ctrls2.perBankWrBursts::5            12702                       # Per bank write bursts
system.mem_ctrls2.perBankWrBursts::6            12638                       # Per bank write bursts
system.mem_ctrls2.perBankWrBursts::7            12826                       # Per bank write bursts
system.mem_ctrls2.perBankWrBursts::8            12524                       # Per bank write bursts
system.mem_ctrls2.perBankWrBursts::9            12737                       # Per bank write bursts
system.mem_ctrls2.perBankWrBursts::10           12530                       # Per bank write bursts
system.mem_ctrls2.perBankWrBursts::11           12474                       # Per bank write bursts
system.mem_ctrls2.perBankWrBursts::12           12468                       # Per bank write bursts
system.mem_ctrls2.perBankWrBursts::13           12455                       # Per bank write bursts
system.mem_ctrls2.perBankWrBursts::14           12705                       # Per bank write bursts
system.mem_ctrls2.perBankWrBursts::15           12539                       # Per bank write bursts
system.mem_ctrls2.numRdRetry                     3948                       # Number of times read queue was full causing retry
system.mem_ctrls2.numWrRetry                     2071                       # Number of times write queue was full causing retry
system.mem_ctrls2.totGap                 131445144500                       # Total gap between requests
system.mem_ctrls2.readPktSize::0                    0                       # Read request sizes (log2)
system.mem_ctrls2.readPktSize::1                    0                       # Read request sizes (log2)
system.mem_ctrls2.readPktSize::2                    0                       # Read request sizes (log2)
system.mem_ctrls2.readPktSize::3                    0                       # Read request sizes (log2)
system.mem_ctrls2.readPktSize::4                    0                       # Read request sizes (log2)
system.mem_ctrls2.readPktSize::5                    0                       # Read request sizes (log2)
system.mem_ctrls2.readPktSize::6               324956                       # Read request sizes (log2)
system.mem_ctrls2.writePktSize::0                   0                       # Write request sizes (log2)
system.mem_ctrls2.writePktSize::1                   0                       # Write request sizes (log2)
system.mem_ctrls2.writePktSize::2                   0                       # Write request sizes (log2)
system.mem_ctrls2.writePktSize::3                   0                       # Write request sizes (log2)
system.mem_ctrls2.writePktSize::4                   0                       # Write request sizes (log2)
system.mem_ctrls2.writePktSize::5                   0                       # Write request sizes (log2)
system.mem_ctrls2.writePktSize::6              201732                       # Write request sizes (log2)
system.mem_ctrls2.rdQLenPdf::0                 181469                       # What read queue length does an incoming req see
system.mem_ctrls2.rdQLenPdf::1                  14762                       # What read queue length does an incoming req see
system.mem_ctrls2.rdQLenPdf::2                  14426                       # What read queue length does an incoming req see
system.mem_ctrls2.rdQLenPdf::3                  13186                       # What read queue length does an incoming req see
system.mem_ctrls2.rdQLenPdf::4                  12155                       # What read queue length does an incoming req see
system.mem_ctrls2.rdQLenPdf::5                  11195                       # What read queue length does an incoming req see
system.mem_ctrls2.rdQLenPdf::6                  10375                       # What read queue length does an incoming req see
system.mem_ctrls2.rdQLenPdf::7                   9281                       # What read queue length does an incoming req see
system.mem_ctrls2.rdQLenPdf::8                   8184                       # What read queue length does an incoming req see
system.mem_ctrls2.rdQLenPdf::9                   7081                       # What read queue length does an incoming req see
system.mem_ctrls2.rdQLenPdf::10                  5974                       # What read queue length does an incoming req see
system.mem_ctrls2.rdQLenPdf::11                  5158                       # What read queue length does an incoming req see
system.mem_ctrls2.rdQLenPdf::12                  4297                       # What read queue length does an incoming req see
system.mem_ctrls2.rdQLenPdf::13                  3414                       # What read queue length does an incoming req see
system.mem_ctrls2.rdQLenPdf::14                  2976                       # What read queue length does an incoming req see
system.mem_ctrls2.rdQLenPdf::15                  2493                       # What read queue length does an incoming req see
system.mem_ctrls2.rdQLenPdf::16                  2098                       # What read queue length does an incoming req see
system.mem_ctrls2.rdQLenPdf::17                  1749                       # What read queue length does an incoming req see
system.mem_ctrls2.rdQLenPdf::18                  1520                       # What read queue length does an incoming req see
system.mem_ctrls2.rdQLenPdf::19                  1328                       # What read queue length does an incoming req see
system.mem_ctrls2.rdQLenPdf::20                  1103                       # What read queue length does an incoming req see
system.mem_ctrls2.rdQLenPdf::21                   930                       # What read queue length does an incoming req see
system.mem_ctrls2.rdQLenPdf::22                   799                       # What read queue length does an incoming req see
system.mem_ctrls2.rdQLenPdf::23                   709                       # What read queue length does an incoming req see
system.mem_ctrls2.rdQLenPdf::24                   615                       # What read queue length does an incoming req see
system.mem_ctrls2.rdQLenPdf::25                   555                       # What read queue length does an incoming req see
system.mem_ctrls2.rdQLenPdf::26                   538                       # What read queue length does an incoming req see
system.mem_ctrls2.rdQLenPdf::27                   520                       # What read queue length does an incoming req see
system.mem_ctrls2.rdQLenPdf::28                   503                       # What read queue length does an incoming req see
system.mem_ctrls2.rdQLenPdf::29                   476                       # What read queue length does an incoming req see
system.mem_ctrls2.rdQLenPdf::30                   485                       # What read queue length does an incoming req see
system.mem_ctrls2.rdQLenPdf::31                  4587                       # What read queue length does an incoming req see
system.mem_ctrls2.wrQLenPdf::0                  36787                       # What write queue length does an incoming req see
system.mem_ctrls2.wrQLenPdf::1                  38086                       # What write queue length does an incoming req see
system.mem_ctrls2.wrQLenPdf::2                  38491                       # What write queue length does an incoming req see
system.mem_ctrls2.wrQLenPdf::3                  38633                       # What write queue length does an incoming req see
system.mem_ctrls2.wrQLenPdf::4                  38768                       # What write queue length does an incoming req see
system.mem_ctrls2.wrQLenPdf::5                   3589                       # What write queue length does an incoming req see
system.mem_ctrls2.wrQLenPdf::6                   3224                       # What write queue length does an incoming req see
system.mem_ctrls2.wrQLenPdf::7                   4154                       # What write queue length does an incoming req see
system.mem_ctrls2.bytesPerActivate::samples       126161                       # Bytes accessed per row activation
system.mem_ctrls2.bytesPerActivate::mean   267.160343                       # Bytes accessed per row activation
system.mem_ctrls2.bytesPerActivate::gmean   205.533013                       # Bytes accessed per row activation
system.mem_ctrls2.bytesPerActivate::stdev   201.546770                       # Bytes accessed per row activation
system.mem_ctrls2.bytesPerActivate::0-127        26172     20.74%     20.74% # Bytes accessed per row activation
system.mem_ctrls2.bytesPerActivate::128-255        29067     23.04%     43.78% # Bytes accessed per row activation
system.mem_ctrls2.bytesPerActivate::256-383        53118     42.10%     85.89% # Bytes accessed per row activation
system.mem_ctrls2.bytesPerActivate::384-511         5089      4.03%     89.92% # Bytes accessed per row activation
system.mem_ctrls2.bytesPerActivate::512-639         4605      3.65%     93.57% # Bytes accessed per row activation
system.mem_ctrls2.bytesPerActivate::640-767         2151      1.70%     95.28% # Bytes accessed per row activation
system.mem_ctrls2.bytesPerActivate::768-895         1486      1.18%     96.45% # Bytes accessed per row activation
system.mem_ctrls2.bytesPerActivate::896-1023         1100      0.87%     97.33% # Bytes accessed per row activation
system.mem_ctrls2.bytesPerActivate::1024-1151         3373      2.67%    100.00% # Bytes accessed per row activation
system.mem_ctrls2.bytesPerActivate::total       126161                       # Bytes accessed per row activation
system.mem_ctrls2.rdPerTurnAround::samples        37060                       # Reads before turning the bus around for writes
system.mem_ctrls2.rdPerTurnAround::mean      8.767377                       # Reads before turning the bus around for writes
system.mem_ctrls2.rdPerTurnAround::stdev    20.591504                       # Reads before turning the bus around for writes
system.mem_ctrls2.rdPerTurnAround::0-127        37021     99.89%     99.89% # Reads before turning the bus around for writes
system.mem_ctrls2.rdPerTurnAround::128-255           37      0.10%     99.99% # Reads before turning the bus around for writes
system.mem_ctrls2.rdPerTurnAround::1152-1279            1      0.00%    100.00% # Reads before turning the bus around for writes
system.mem_ctrls2.rdPerTurnAround::2816-2943            1      0.00%    100.00% # Reads before turning the bus around for writes
system.mem_ctrls2.rdPerTurnAround::total        37060                       # Reads before turning the bus around for writes
system.mem_ctrls2.wrPerTurnAround::samples        37060                       # Writes before turning the bus around for reads
system.mem_ctrls2.wrPerTurnAround::mean      5.443308                       # Writes before turning the bus around for reads
system.mem_ctrls2.wrPerTurnAround::gmean     5.299399                       # Writes before turning the bus around for reads
system.mem_ctrls2.wrPerTurnAround::stdev     1.676789                       # Writes before turning the bus around for reads
system.mem_ctrls2.wrPerTurnAround::4-7          34689     93.60%     93.60% # Writes before turning the bus around for reads
system.mem_ctrls2.wrPerTurnAround::8-11          1471      3.97%     97.57% # Writes before turning the bus around for reads
system.mem_ctrls2.wrPerTurnAround::12-15          501      1.35%     98.92% # Writes before turning the bus around for reads
system.mem_ctrls2.wrPerTurnAround::16-19          399      1.08%    100.00% # Writes before turning the bus around for reads
system.mem_ctrls2.wrPerTurnAround::total        37060                       # Writes before turning the bus around for reads
system.mem_ctrls2.totQLat                 13008733136                       # Total ticks spent queuing
system.mem_ctrls2.totMemAccLat            19101376886                       # Total ticks spent from burst creation until serviced by the DRAM
system.mem_ctrls2.totBusLat                1624705000                       # Total ticks spent in databus transfers
system.mem_ctrls2.avgQLat                    40034.14                       # Average queueing delay per DRAM burst
system.mem_ctrls2.avgBusLat                   5000.00                       # Average bus latency per DRAM burst
system.mem_ctrls2.avgMemAccLat               58784.14                       # Average memory access latency per DRAM burst
system.mem_ctrls2.avgRdBW                      158.21                       # Average DRAM read bandwidth in MiByte/s
system.mem_ctrls2.avgWrBW                       98.22                       # Average achieved write bandwidth in MiByte/s
system.mem_ctrls2.avgRdBWSys                   158.22                       # Average system read bandwidth in MiByte/s
system.mem_ctrls2.avgWrBWSys                    98.22                       # Average system write bandwidth in MiByte/s
system.mem_ctrls2.peakBW                     12800.00                       # Theoretical peak bandwidth in MiByte/s
system.mem_ctrls2.busUtil                        2.00                       # Data bus utilization in percentage
system.mem_ctrls2.busUtilRead                    1.24                       # Data bus utilization in percentage for reads
system.mem_ctrls2.busUtilWrite                   0.77                       # Data bus utilization in percentage for writes
system.mem_ctrls2.avgRdQLen                      1.12                       # Average read queue length when enqueuing
system.mem_ctrls2.avgWrQLen                      2.95                       # Average write queue length when enqueuing
system.mem_ctrls2.readRowHits                  255078                       # Number of row buffer hits during reads
system.mem_ctrls2.writeRowHits                 145423                       # Number of row buffer hits during writes
system.mem_ctrls2.readRowHitRate                78.50                       # Row buffer hit rate for reads
system.mem_ctrls2.writeRowHitRate               72.09                       # Row buffer hit rate for writes
system.mem_ctrls2.avgGap                    249569.28                       # Average gap between requests
system.mem_ctrls2.pageHitRate                   76.04                       # Row buffer hit rate, read and write combined
system.mem_ctrls2.memoryStateTime::IDLE   28403902500                       # Time in different power states
system.mem_ctrls2.memoryStateTime::REF     4389060000                       # Time in different power states
system.mem_ctrls2.memoryStateTime::PRE_PDN            0                       # Time in different power states
system.mem_ctrls2.memoryStateTime::ACT    98646998750                       # Time in different power states
system.mem_ctrls2.memoryStateTime::ACT_PDN            0                       # Time in different power states
system.mem_ctrls2.actEnergy::0              484376760                       # Energy for activate commands per rank (pJ)
system.mem_ctrls2.actEnergy::1              469355040                       # Energy for activate commands per rank (pJ)
system.mem_ctrls2.preEnergy::0              264292875                       # Energy for precharge commands per rank (pJ)
system.mem_ctrls2.preEnergy::1              256096500                       # Energy for precharge commands per rank (pJ)
system.mem_ctrls2.readEnergy::0            1275105000                       # Energy for read commands per rank (pJ)
system.mem_ctrls2.readEnergy::1            1259044800                       # Energy for read commands per rank (pJ)
system.mem_ctrls2.writeEnergy::0            656404560                       # Energy for write commands per rank (pJ)
system.mem_ctrls2.writeEnergy::1            650611440                       # Energy for write commands per rank (pJ)
system.mem_ctrls2.refreshEnergy::0         8585001360                       # Energy for refresh commands per rank (pJ)
system.mem_ctrls2.refreshEnergy::1         8585001360                       # Energy for refresh commands per rank (pJ)
system.mem_ctrls2.actBackEnergy::0        49376045655                       # Energy for active background per rank (pJ)
system.mem_ctrls2.actBackEnergy::1        48448383480                       # Energy for active background per rank (pJ)
system.mem_ctrls2.preBackEnergy::0        35551647750                       # Energy for precharge background per rank (pJ)
system.mem_ctrls2.preBackEnergy::1        36365386500                       # Energy for precharge background per rank (pJ)
system.mem_ctrls2.totalEnergy::0          96192873960                       # Total energy per rank (pJ)
system.mem_ctrls2.totalEnergy::1          96033879120                       # Total energy per rank (pJ)
system.mem_ctrls2.averagePower::0          731.838956                       # Core power per rank (mW)
system.mem_ctrls2.averagePower::1          730.629317                       # Core power per rank (mW)
system.mem_ctrls3.bytes_read::ruby.dir_cntrl3     20775488                       # Number of bytes read from this memory
system.mem_ctrls3.bytes_read::total          20775488                       # Number of bytes read from this memory
system.mem_ctrls3.bytes_written::ruby.dir_cntrl3     12909632                       # Number of bytes written to this memory
system.mem_ctrls3.bytes_written::total       12909632                       # Number of bytes written to this memory
system.mem_ctrls3.num_reads::ruby.dir_cntrl3       324617                       # Number of read requests responded to by this memory
system.mem_ctrls3.num_reads::total             324617                       # Number of read requests responded to by this memory
system.mem_ctrls3.num_writes::ruby.dir_cntrl3       201713                       # Number of write requests responded to by this memory
system.mem_ctrls3.num_writes::total            201713                       # Number of write requests responded to by this memory
system.mem_ctrls3.bw_read::ruby.dir_cntrl3    158054326                       # Total read bandwidth from this memory (bytes/s)
system.mem_ctrls3.bw_read::total            158054326                       # Total read bandwidth from this memory (bytes/s)
system.mem_ctrls3.bw_write::ruby.dir_cntrl3     98213009                       # Write bandwidth from this memory (bytes/s)
system.mem_ctrls3.bw_write::total            98213009                       # Write bandwidth from this memory (bytes/s)
system.mem_ctrls3.bw_total::ruby.dir_cntrl3    256267335                       # Total bandwidth to/from this memory (bytes/s)
system.mem_ctrls3.bw_total::total           256267335                       # Total bandwidth to/from this memory (bytes/s)
system.mem_ctrls3.readReqs                     324617                       # Number of read requests accepted
system.mem_ctrls3.writeReqs                    201713                       # Number of write requests accepted
system.mem_ctrls3.readBursts                   324617                       # Number of DRAM read bursts, including those serviced by the write queue
system.mem_ctrls3.writeBursts                  201713                       # Number of DRAM write bursts, including those merged in the write queue
system.mem_ctrls3.bytesReadDRAM              20774592                       # Total number of bytes read from DRAM
system.mem_ctrls3.bytesReadWrQ                    896                       # Total number of bytes read from write queue
system.mem_ctrls3.bytesWritten               12909504                       # Total number of bytes written to DRAM
system.mem_ctrls3.bytesReadSys               20775488                       # Total read bytes from the system interface side
system.mem_ctrls3.bytesWrittenSys            12909632                       # Total written bytes from the system interface side
system.mem_ctrls3.servicedByWrQ                    14                       # Number of DRAM read bursts serviced by the write queue
system.mem_ctrls3.mergedWrBursts                    0                       # Number of DRAM write bursts merged with an existing one
system.mem_ctrls3.neitherReadNorWriteReqs            0                       # Number of requests that are neither read nor write
system.mem_ctrls3.perBankRdBursts::0            20050                       # Per bank write bursts
system.mem_ctrls3.perBankRdBursts::1            20651                       # Per bank write bursts
system.mem_ctrls3.perBankRdBursts::2            20160                       # Per bank write bursts
system.mem_ctrls3.perBankRdBursts::3            20702                       # Per bank write bursts
system.mem_ctrls3.perBankRdBursts::4            20312                       # Per bank write bursts
system.mem_ctrls3.perBankRdBursts::5            20516                       # Per bank write bursts
system.mem_ctrls3.perBankRdBursts::6            20424                       # Per bank write bursts
system.mem_ctrls3.perBankRdBursts::7            20469                       # Per bank write bursts
system.mem_ctrls3.perBankRdBursts::8            20145                       # Per bank write bursts
system.mem_ctrls3.perBankRdBursts::9            20381                       # Per bank write bursts
system.mem_ctrls3.perBankRdBursts::10           20196                       # Per bank write bursts
system.mem_ctrls3.perBankRdBursts::11           20539                       # Per bank write bursts
system.mem_ctrls3.perBankRdBursts::12           19976                       # Per bank write bursts
system.mem_ctrls3.perBankRdBursts::13           19845                       # Per bank write bursts
system.mem_ctrls3.perBankRdBursts::14           20098                       # Per bank write bursts
system.mem_ctrls3.perBankRdBursts::15           20139                       # Per bank write bursts
system.mem_ctrls3.perBankWrBursts::0            12651                       # Per bank write bursts
system.mem_ctrls3.perBankWrBursts::1            12602                       # Per bank write bursts
system.mem_ctrls3.perBankWrBursts::2            12522                       # Per bank write bursts
system.mem_ctrls3.perBankWrBursts::3            12755                       # Per bank write bursts
system.mem_ctrls3.perBankWrBursts::4            12595                       # Per bank write bursts
system.mem_ctrls3.perBankWrBursts::5            12705                       # Per bank write bursts
system.mem_ctrls3.perBankWrBursts::6            12634                       # Per bank write bursts
system.mem_ctrls3.perBankWrBursts::7            12819                       # Per bank write bursts
system.mem_ctrls3.perBankWrBursts::8            12521                       # Per bank write bursts
system.mem_ctrls3.perBankWrBursts::9            12740                       # Per bank write bursts
system.mem_ctrls3.perBankWrBursts::10           12530                       # Per bank write bursts
system.mem_ctrls3.perBankWrBursts::11           12480                       # Per bank write bursts
system.mem_ctrls3.perBankWrBursts::12           12464                       # Per bank write bursts
system.mem_ctrls3.perBankWrBursts::13           12460                       # Per bank write bursts
system.mem_ctrls3.perBankWrBursts::14           12712                       # Per bank write bursts
system.mem_ctrls3.perBankWrBursts::15           12521                       # Per bank write bursts
system.mem_ctrls3.numRdRetry                     3795                       # Number of times read queue was full causing retry
system.mem_ctrls3.numWrRetry                     1999                       # Number of times write queue was full causing retry
system.mem_ctrls3.totGap                 131444414000                       # Total gap between requests
system.mem_ctrls3.readPktSize::0                    0                       # Read request sizes (log2)
system.mem_ctrls3.readPktSize::1                    0                       # Read request sizes (log2)
system.mem_ctrls3.readPktSize::2                    0                       # Read request sizes (log2)
system.mem_ctrls3.readPktSize::3                    0                       # Read request sizes (log2)
system.mem_ctrls3.readPktSize::4                    0                       # Read request sizes (log2)
system.mem_ctrls3.readPktSize::5                    0                       # Read request sizes (log2)
system.mem_ctrls3.readPktSize::6               324617                       # Read request sizes (log2)
system.mem_ctrls3.writePktSize::0                   0                       # Write request sizes (log2)
system.mem_ctrls3.writePktSize::1                   0                       # Write request sizes (log2)
system.mem_ctrls3.writePktSize::2                   0                       # Write request sizes (log2)
system.mem_ctrls3.writePktSize::3                   0                       # Write request sizes (log2)
system.mem_ctrls3.writePktSize::4                   0                       # Write request sizes (log2)
system.mem_ctrls3.writePktSize::5                   0                       # Write request sizes (log2)
system.mem_ctrls3.writePktSize::6              201713                       # Write request sizes (log2)
system.mem_ctrls3.rdQLenPdf::0                 181317                       # What read queue length does an incoming req see
system.mem_ctrls3.rdQLenPdf::1                  14837                       # What read queue length does an incoming req see
system.mem_ctrls3.rdQLenPdf::2                  14682                       # What read queue length does an incoming req see
system.mem_ctrls3.rdQLenPdf::3                  13363                       # What read queue length does an incoming req see
system.mem_ctrls3.rdQLenPdf::4                  12188                       # What read queue length does an incoming req see
system.mem_ctrls3.rdQLenPdf::5                  11288                       # What read queue length does an incoming req see
system.mem_ctrls3.rdQLenPdf::6                  10041                       # What read queue length does an incoming req see
system.mem_ctrls3.rdQLenPdf::7                   9051                       # What read queue length does an incoming req see
system.mem_ctrls3.rdQLenPdf::8                   8021                       # What read queue length does an incoming req see
system.mem_ctrls3.rdQLenPdf::9                   7012                       # What read queue length does an incoming req see
system.mem_ctrls3.rdQLenPdf::10                  6037                       # What read queue length does an incoming req see
system.mem_ctrls3.rdQLenPdf::11                  5156                       # What read queue length does an incoming req see
system.mem_ctrls3.rdQLenPdf::12                  4219                       # What read queue length does an incoming req see
system.mem_ctrls3.rdQLenPdf::13                  3607                       # What read queue length does an incoming req see
system.mem_ctrls3.rdQLenPdf::14                  3003                       # What read queue length does an incoming req see
system.mem_ctrls3.rdQLenPdf::15                  2544                       # What read queue length does an incoming req see
system.mem_ctrls3.rdQLenPdf::16                  2130                       # What read queue length does an incoming req see
system.mem_ctrls3.rdQLenPdf::17                  1816                       # What read queue length does an incoming req see
system.mem_ctrls3.rdQLenPdf::18                  1492                       # What read queue length does an incoming req see
system.mem_ctrls3.rdQLenPdf::19                  1229                       # What read queue length does an incoming req see
system.mem_ctrls3.rdQLenPdf::20                  1098                       # What read queue length does an incoming req see
system.mem_ctrls3.rdQLenPdf::21                   886                       # What read queue length does an incoming req see
system.mem_ctrls3.rdQLenPdf::22                   820                       # What read queue length does an incoming req see
system.mem_ctrls3.rdQLenPdf::23                   707                       # What read queue length does an incoming req see
system.mem_ctrls3.rdQLenPdf::24                   635                       # What read queue length does an incoming req see
[...]
system.ruby.L2Cache_Controller.S_I.Ack_all::total           32                      
system.ruby.L2Cache_Controller.ISS.Mem_Data |       25555      5.07%      5.07% |       15487      3.07%      8.14% |       15522      3.08%     11.22% |       15471      3.07%     14.28% |       15441      3.06%     17.35% |       15420      3.06%     20.40% |       15428      3.06%     23.46% |       15426      3.06%     26.52% |       15461      3.07%     29.59% |       15473      3.07%     32.66% |       15496      3.07%     35.73% |       15419      3.06%     38.79% |       15436      3.06%     41.85% |       15440      3.06%     44.91% |       15453      3.06%     47.97% |       15412      3.06%     51.03% |       15431      3.06%     54.09% |       15423      3.06%     57.15% |       15448      3.06%     60.21% |       15428      3.06%     63.27% |       15444      3.06%     66.33% |       15462      3.07%     69.40% |       15459      3.07%     72.46% |       15436      3.06%     75.52% |       15447      3.06%     78.59% |       15444      3.06%     81.65% |       15424      3.06%     84.71% |       15410      3.06%     87.76% |       15449      3.06%     90.83% |       15413      3.06%     93.88% |       15412      3.06%     96.94% |       15438      3.06%    100.00%
system.ruby.L2Cache_Controller.ISS.Mem_Data::total       504308                      
system.ruby.L2Cache_Controller.IS.Mem_Data |         503      3.21%      3.21% |         454      2.89%      6.10% |         438      2.79%      8.89% |         449      2.86%     11.76% |         449      2.86%     14.62% |         430      2.74%     17.36% |         472      3.01%     20.37% |         491      3.13%     23.50% |         505      3.22%     26.72% |         445      2.84%     29.56% |         487      3.10%     32.66% |         498      3.18%     35.84% |         551      3.51%     39.35% |         523      3.33%     42.68% |         510      3.25%     45.94% |         492      3.14%     49.07% |         515      3.28%     52.36% |         532      3.39%     55.75% |         529      3.37%     59.12% |         483      3.08%     62.20% |         473      3.02%     65.22% |         523      3.33%     68.55% |         477      3.04%     71.59% |         451      2.88%     74.47% |         518      3.30%     77.77% |         578      3.69%     81.45% |         522      3.33%     84.78% |         479      3.05%     87.84% |         456      2.91%     90.74% |         512      3.26%     94.01% |         487      3.10%     97.11% |         453      2.89%    100.00%
system.ruby.L2Cache_Controller.IS.Mem_Data::total        15685                      
system.ruby.L2Cache_Controller.IM.Mem_Data |       24762      3.14%      3.14% |       24665      3.12%      6.26% |       24674      3.12%      9.38% |       24679      3.13%     12.51% |       24670      3.12%     15.63% |       24674      3.12%     18.76% |       24675      3.12%     21.88% |       24666      3.12%     25.00% |       24681      3.13%     28.13% |       24680      3.13%     31.26% |       24663      3.12%     34.38% |       24687      3.13%     37.50% |       24674      3.12%     40.63% |       24671      3.12%     43.75% |       24669      3.12%     46.88% |       24662      3.12%     50.00% |       24683      3.13%     53.13% |       24680      3.13%     56.25% |       24677      3.12%     59.38% |       24675      3.12%     62.50% |       24689      3.13%     65.63% |       24695      3.13%     68.75% |       24670      3.12%     71.88% |       24674      3.12%     75.00% |       24686      3.13%     78.13% |       24680      3.13%     81.25% |       24683      3.13%     84.38% |       24670      3.12%     87.50% |       24671      3.12%     90.63% |       24672      3.12%     93.75% |       24681      3.13%     96.88% |       24668      3.12%    100.00%
system.ruby.L2Cache_Controller.IM.Mem_Data::total       789706                      
system.ruby.L2Cache_Controller.SS_MB.Exclusive_Unblock |           2      4.17%      4.17% |           4      8.33%     12.50% |           5     10.42%     22.92% |           3      6.25%     29.17% |           0      0.00%     29.17% |           0      0.00%     29.17% |           0      0.00%     29.17% |           0      0.00%     29.17% |           1      2.08%     31.25% |           1      2.08%     33.33% |           0      0.00%     33.33% |           1      2.08%     35.42% |           6     12.50%     47.92% |           0      0.00%     47.92% |           2      4.17%     52.08% |           0      0.00%     52.08% |           0      0.00%     52.08% |           0      0.00%     52.08% |           7     14.58%     66.67% |           5     10.42%     77.08% |           1      2.08%     79.17% |           0      0.00%     79.17% |           0      0.00%     79.17% |           0      0.00%     79.17% |           1      2.08%     81.25% |           1      2.08%     83.33% |           1      2.08%     85.42% |           1      2.08%     87.50% |           5     10.42%     97.92% |           0      0.00%     97.92% |           1      2.08%    100.00% |           0      0.00%    100.00%
system.ruby.L2Cache_Controller.SS_MB.Exclusive_Unblock::total           48                      
system.ruby.L2Cache_Controller.MT_MB.L1_PUTX |           7    100.00%    100.00% |           0      0.00%    100.00% |           0      0.00%    100.00% |           0      0.00%    100.00% |           0      0.00%    100.00% |           0      0.00%    100.00% |           0      0.00%    100.00% |           0      0.00%    100.00% |           0      0.00%    100.00% |           0      0.00%    100.00% |           0      0.00%    100.00% |           0      0.00%    100.00% |           0      0.00%    100.00% |           0      0.00%    100.00% |           0      0.00%    100.00% |           0      0.00%    100.00% |           0      0.00%    100.00% |           0      0.00%    100.00% |           0      0.00%    100.00% |           0      0.00%    100.00% |           0      0.00%    100.00% |           0      0.00%    100.00% |           0      0.00%    100.00% |           0      0.00%    100.00% |           0      0.00%    100.00% |           0      0.00%    100.00% |           0      0.00%    100.00% |           0      0.00%    100.00% |           0      0.00%    100.00% |           0      0.00%    100.00% |           0      0.00%    100.00% |           0      0.00%    100.00%
system.ruby.L2Cache_Controller.MT_MB.L1_PUTX::total            7                      
system.ruby.L2Cache_Controller.MT_MB.Exclusive_Unblock |      171794      9.58%      9.58% |       54286      3.03%     12.60% |       49290      2.75%     15.35% |       52996      2.95%     18.30% |       53509      2.98%     21.29% |       49518      2.76%     24.05% |       45957      2.56%     26.61% |       45966      2.56%     29.17% |       51557      2.87%     32.04% |       49820      2.78%     34.82% |       54066      3.01%     37.83% |       51029      2.84%     40.68% |       48290      2.69%     43.37% |       46916      2.62%     45.98% |       47890      2.67%     48.65% |       46614      2.60%     51.25% |       50589      2.82%     54.07% |       48377      2.70%     56.77% |       49903      2.78%     59.55% |       54015      3.01%     62.56% |       54525      3.04%     65.60% |       63387      3.53%     69.13% |       58005      3.23%     72.37% |       53247      2.97%     75.33% |       53493      2.98%     78.32% |       51441      2.87%     81.18% |       52509      2.93%     84.11% |       52312      2.92%     87.03% |       55511      3.09%     90.12% |       55171      3.08%     93.20% |       63475      3.54%     96.73% |       58597      3.27%    100.00%
system.ruby.L2Cache_Controller.MT_MB.Exclusive_Unblock::total      1794055                      
system.ruby.L2Cache_Controller.MT_IIB.WB_Data |           0      0.00%      0.00% |           0      0.00%      0.00% |           1      7.14%      7.14% |           1      7.14%     14.29% |           1      7.14%     21.43% |           0      0.00%     21.43% |           1      7.14%     28.57% |           0      0.00%     28.57% |           1      7.14%     35.71% |           1      7.14%     42.86% |           1      7.14%     50.00% |           1      7.14%     57.14% |           1      7.14%     64.29% |           0      0.00%     64.29% |           1      7.14%     71.43% |           1      7.14%     78.57% |           1      7.14%     85.71% |           1      7.14%     92.86% |           1      7.14%    100.00% |           0      0.00%    100.00% |           0      0.00%    100.00% |           0      0.00%    100.00% |           0      0.00%    100.00% |           0      0.00%    100.00% |           0      0.00%    100.00% |           0      0.00%    100.00% |           0      0.00%    100.00% |           0      0.00%    100.00% |           0      0.00%    100.00% |           0      0.00%    100.00% |           0      0.00%    100.00% |           0      0.00%    100.00%
system.ruby.L2Cache_Controller.MT_IIB.WB_Data::total           14                      
system.ruby.L2Cache_Controller.MT_IIB.WB_Data_clean |           7    100.00%    100.00% |           0      0.00%    100.00% |           0      0.00%    100.00% |           0      0.00%    100.00% |           0      0.00%    100.00% |           0      0.00%    100.00% |           0      0.00%    100.00% |           0      0.00%    100.00% |           0      0.00%    100.00% |           0      0.00%    100.00% |           0      0.00%    100.00% |           0      0.00%    100.00% |           0      0.00%    100.00% |           0      0.00%    100.00% |           0      0.00%    100.00% |           0      0.00%    100.00% |           0      0.00%    100.00% |           0      0.00%    100.00% |           0      0.00%    100.00% |           0      0.00%    100.00% |           0      0.00%    100.00% |           0      0.00%    100.00% |           0      0.00%    100.00% |           0      0.00%    100.00% |           0      0.00%    100.00% |           0      0.00%    100.00% |           0      0.00%    100.00% |           0      0.00%    100.00% |           0      0.00%    100.00% |           0      0.00%    100.00% |           0      0.00%    100.00% |           0      0.00%    100.00%
system.ruby.L2Cache_Controller.MT_IIB.WB_Data_clean::total            7                      
system.ruby.L2Cache_Controller.MT_IIB.Unblock |           0      0.00%      0.00% |           0      0.00%      0.00% |           0      0.00%      0.00% |           0      0.00%      0.00% |           0      0.00%      0.00% |           0      0.00%      0.00% |           0      0.00%      0.00% |           1     50.00%     50.00% |           0      0.00%     50.00% |           0      0.00%     50.00% |           0      0.00%     50.00% |           0      0.00%     50.00% |           0      0.00%     50.00% |           1     50.00%    100.00% |           0      0.00%    100.00% |           0      0.00%    100.00% |           0      0.00%    100.00% |           0      0.00%    100.00% |           0      0.00%    100.00% |           0      0.00%    100.00% |           0      0.00%    100.00% |           0      0.00%    100.00% |           0      0.00%    100.00% |           0      0.00%    100.00% |           0      0.00%    100.00% |           0      0.00%    100.00% |           0      0.00%    100.00% |           0      0.00%    100.00% |           0      0.00%    100.00% |           0      0.00%    100.00% |           0      0.00%    100.00% |           0      0.00%    100.00%
system.ruby.L2Cache_Controller.MT_IIB.Unblock::total            2                      
system.ruby.L2Cache_Controller.MT_IB.WB_Data |           0      0.00%      0.00% |           0      0.00%      0.00% |           0      0.00%      0.00% |           0      0.00%      0.00% |           0      0.00%      0.00% |           0      0.00%      0.00% |           0      0.00%      0.00% |           1     50.00%     50.00% |           0      0.00%     50.00% |           0      0.00%     50.00% |           0      0.00%     50.00% |           0      0.00%     50.00% |           0      0.00%     50.00% |           1     50.00%    100.00% |           0      0.00%    100.00% |           0      0.00%    100.00% |           0      0.00%    100.00% |           0      0.00%    100.00% |           0      0.00%    100.00% |           0      0.00%    100.00% |           0      0.00%    100.00% |           0      0.00%    100.00% |           0      0.00%    100.00% |           0      0.00%    100.00% |           0      0.00%    100.00% |           0      0.00%    100.00% |           0      0.00%    100.00% |           0      0.00%    100.00% |           0      0.00%    100.00% |           0      0.00%    100.00% |           0      0.00%    100.00% |           0      0.00%    100.00%
system.ruby.L2Cache_Controller.MT_IB.WB_Data::total            2                      
system.ruby.L2Cache_Controller.MT_SB.Unblock |           7     33.33%     33.33% |           0      0.00%     33.33% |           1      4.76%     38.10% |           1      4.76%     42.86% |           1      4.76%     47.62% |           0      0.00%     47.62% |           1      4.76%     52.38% |           0      0.00%     52.38% |           1      4.76%     57.14% |           1      4.76%     61.90% |           1      4.76%     66.67% |           1      4.76%     71.43% |           1      4.76%     76.19% |           0      0.00%     76.19% |           1      4.76%     80.95% |           1      4.76%     85.71% |           1      4.76%     90.48% |           1      4.76%     95.24% |           1      4.76%    100.00% |           0      0.00%    100.00% |           0      0.00%    100.00% |           0      0.00%    100.00% |           0      0.00%    100.00% |           0      0.00%    100.00% |           0      0.00%    100.00% |           0      0.00%    100.00% |           0      0.00%    100.00% |           0      0.00%    100.00% |           0      0.00%    100.00% |           0      0.00%    100.00% |           0      0.00%    100.00% |           0      0.00%    100.00%
system.ruby.L2Cache_Controller.MT_SB.Unblock::total           21                      
system.ruby.SimicsNetworkPortInterface_Controller.MessageSend |      222758     22.29%     22.29% |      499606     50.00%     72.29% |       34576      3.46%     75.75% |       34933      3.50%     79.25% |       34632      3.47%     82.72% |       34635      3.47%     86.18% |       34710      3.47%     89.66% |       35422      3.54%     93.20% |       33504      3.35%     96.55% |       34436      3.45%    100.00% |           0      0.00%    100.00% |           0      0.00%    100.00% |           0      0.00%    100.00% |           0      0.00%    100.00% |           0      0.00%    100.00% |           0      0.00%    100.00% |           0      0.00%    100.00% |           0      0.00%    100.00% |           0      0.00%    100.00% |           0      0.00%    100.00% |           0      0.00%    100.00% |           0      0.00%    100.00% |           0      0.00%    100.00% |           0      0.00%    100.00% |           0      0.00%    100.00% |           0      0.00%    100.00% |           0      0.00%    100.00% |           0      0.00%    100.00% |           0      0.00%    100.00% |           0      0.00%    100.00% |           0      0.00%    100.00% |           0      0.00%    100.00%
system.ruby.SimicsNetworkPortInterface_Controller.MessageSend::total       999212                      
system.ruby.SimicsNetworkPortInterface_Controller.MessageRecv |      222758     22.29%     22.29% |      499606     50.00%     72.29% |       34576      3.46%     75.75% |       34933      3.50%     79.25% |       34632      3.47%     82.72% |       34635      3.47%     86.18% |       34710      3.47%     89.66% |       35422      3.54%     93.20% |       33504      3.35%     96.55% |       34436      3.45%    100.00% |           0      0.00%    100.00% |           0      0.00%    100.00% |           0      0.00%    100.00% |           0      0.00%    100.00% |           0      0.00%    100.00% |           0      0.00%    100.00% |           0      0.00%    100.00% |           0      0.00%    100.00% |           0      0.00%    100.00% |           0      0.00%    100.00% |           0      0.00%    100.00% |           0      0.00%    100.00% |           0      0.00%    100.00% |           0      0.00%    100.00% |           0      0.00%    100.00% |           0      0.00%    100.00% |           0      0.00%    100.00% |           0      0.00%    100.00% |           0      0.00%    100.00% |           0      0.00%    100.00% |           0      0.00%    100.00% |           0      0.00%    100.00%
system.ruby.SimicsNetworkPortInterface_Controller.MessageRecv::total       999212                      
system.ruby.SimicsNetworkPortInterface_Controller.A.MessageSend |      222758     22.29%     22.29% |      499606     50.00%     72.29% |       34576      3.46%     75.75% |       34933      3.50%     79.25% |       34632      3.47%     82.72% |       34635      3.47%     86.18% |       34710      3.47%     89.66% |       35422      3.54%     93.20% |       33504      3.35%     96.55% |       34436      3.45%    100.00% |           0      0.00%    100.00% |           0      0.00%    100.00% |           0      0.00%    100.00% |           0      0.00%    100.00% |           0      0.00%    100.00% |           0      0.00%    100.00% |           0      0.00%    100.00% |           0      0.00%    100.00% |           0      0.00%    100.00% |           0      0.00%    100.00% |           0      0.00%    100.00% |           0      0.00%    100.00% |           0      0.00%    100.00% |           0      0.00%    100.00% |           0      0.00%    100.00% |           0      0.00%    100.00% |           0      0.00%    100.00% |           0      0.00%    100.00% |           0      0.00%    100.00% |           0      0.00%    100.00% |           0      0.00%    100.00% |           0      0.00%    100.00%
system.ruby.SimicsNetworkPortInterface_Controller.A.MessageSend::total       999212                      
system.ruby.SimicsNetworkPortInterface_Controller.A.MessageRecv |      222758     22.29%     22.29% |      499606     50.00%     72.29% |       34576      3.46%     75.75% |       34933      3.50%     79.25% |       34632      3.47%     82.72% |       34635      3.47%     86.18% |       34710      3.47%     89.66% |       35422      3.54%     93.20% |       33504      3.35%     96.55% |       34436      3.45%    100.00% |           0      0.00%    100.00% |           0      0.00%    100.00% |           0      0.00%    100.00% |           0      0.00%    100.00% |           0      0.00%    100.00% |           0      0.00%    100.00% |           0      0.00%    100.00% |           0      0.00%    100.00% |           0      0.00%    100.00% |           0      0.00%    100.00% |           0      0.00%    100.00% |           0      0.00%    100.00% |           0      0.00%    100.00% |           0      0.00%    100.00% |           0      0.00%    100.00% |           0      0.00%    100.00% |           0      0.00%    100.00% |           0      0.00%    100.00% |           0      0.00%    100.00% |           0      0.00%    100.00% |           0      0.00%    100.00% |           0      0.00%    100.00%
system.ruby.SimicsNetworkPortInterface_Controller.A.MessageRecv::total       999212                      
system.switch_cpus.kern.inst.arm                    0                       # number of arm instructions executed
system.switch_cpus.kern.inst.quiesce                0                       # number of quiesce instructions executed

---------- End Simulation Statistics   ----------
