
---------- Begin Simulation Statistics ----------
sim_seconds                                  0.130685                       # Number of seconds simulated
sim_ticks                                130685343500                       # Number of ticks simulated
final_tick                               5306853422000                       # Number of ticks from beginning of simulation (restored from checkpoints and never reset)
sim_freq                                 1000000000000                       # Frequency of simulated ticks
host_inst_rate                                  65208                       # Simulator instruction rate (inst/s)
host_op_rate                                   112579                       # Simulator op (including micro ops) rate (op/s)
host_tick_rate                              199553042                       # Simulator tick rate (ticks/s)
host_mem_usage                                3718620                       # Number of bytes of host memory used
host_seconds                                   654.89                       # Real time elapsed on the host
sim_insts                                    42704199                       # Number of instructions simulated
sim_ops                                      73727213                       # Number of ops (including micro ops) simulated
system.voltage_domain.voltage                       1                       # Voltage in Volts
system.clk_domain.clock                           500                       # Clock period in ticks
system.mem_ctrls0.bytes_read::ruby.dir_cntrl0     21454336                       # Number of bytes read from this memory
system.mem_ctrls0.bytes_read::total          21454336                       # Number of bytes read from this memory
system.mem_ctrls0.bytes_written::ruby.dir_cntrl0     13546368                       # Number of bytes written to this memory
system.mem_ctrls0.bytes_written::total       13546368                       # Number of bytes written to this memory
system.mem_ctrls0.num_reads::ruby.dir_cntrl0       335224                       # Number of read requests responded to by this memory
system.mem_ctrls0.num_reads::total             335224                       # Number of read requests responded to by this memory
system.mem_ctrls0.num_writes::ruby.dir_cntrl0       211662                       # Number of write requests responded to by this memory
system.mem_ctrls0.num_writes::total            211662                       # Number of write requests responded to by this memory
system.mem_ctrls0.bw_read::ruby.dir_cntrl0    164167882                       # Total read bandwidth from this memory (bytes/s)
system.mem_ctrls0.bw_read::total            164167882                       # Total read bandwidth from this memory (bytes/s)
system.mem_ctrls0.bw_write::ruby.dir_cntrl0    103656368                       # Write bandwidth from this memory (bytes/s)
system.mem_ctrls0.bw_write::total           103656368                       # Write bandwidth from this memory (bytes/s)
system.mem_ctrls0.bw_total::ruby.dir_cntrl0    267824249                       # Total bandwidth to/from this memory (bytes/s)
system.mem_ctrls0.bw_total::total           267824249                       # Total bandwidth to/from this memory (bytes/s)
system.mem_ctrls0.readReqs                     335224                       # Number of read requests accepted
system.mem_ctrls0.writeReqs                    211662                       # Number of write requests accepted
system.mem_ctrls0.readBursts                   335224                       # Number of DRAM read bursts, including those serviced by the write queue
system.mem_ctrls0.writeBursts                  211662                       # Number of DRAM write bursts, including those merged in the write queue
system.mem_ctrls0.bytesReadDRAM              21453312                       # Total number of bytes read from DRAM
system.mem_ctrls0.bytesReadWrQ                   1024                       # Total number of bytes read from write queue
system.mem_ctrls0.bytesWritten               13546304                       # Total number of bytes written to DRAM
system.mem_ctrls0.bytesReadSys               21454336                       # Total read bytes from the system interface side
system.mem_ctrls0.bytesWrittenSys            13546368                       # Total written bytes from the system interface side
system.mem_ctrls0.servicedByWrQ                    16                       # Number of DRAM read bursts serviced by the write queue
system.mem_ctrls0.mergedWrBursts                    0                       # Number of DRAM write bursts merged with an existing one
system.mem_ctrls0.neitherReadNorWriteReqs            0                       # Number of requests that are neither read nor write
system.mem_ctrls0.perBankRdBursts::0            20688                       # Per bank write bursts
system.mem_ctrls0.perBankRdBursts::1            21306                       # Per bank write bursts
system.mem_ctrls0.perBankRdBursts::2            20884                       # Per bank write bursts
system.mem_ctrls0.perBankRdBursts::3            21363                       # Per bank write bursts
system.mem_ctrls0.perBankRdBursts::4            20971                       # Per bank write bursts
system.mem_ctrls0.perBankRdBursts::5            21176                       # Per bank write bursts
system.mem_ctrls0.perBankRdBursts::6            21076                       # Per bank write bursts
system.mem_ctrls0.perBankRdBursts::7            21069                       # Per bank write bursts
system.mem_ctrls0.perBankRdBursts::8            20838                       # Per bank write bursts
system.mem_ctrls0.perBankRdBursts::9            21048                       # Per bank write bursts
system.mem_ctrls0.perBankRdBursts::10           20808                       # Per bank write bursts
system.mem_ctrls0.perBankRdBursts::11           21183                       # Per bank write bursts
system.mem_ctrls0.perBankRdBursts::12           20658                       # Per bank write bursts
system.mem_ctrls0.perBankRdBursts::13           20570                       # Per bank write bursts
system.mem_ctrls0.perBankRdBursts::14           20789                       # Per bank write bursts
system.mem_ctrls0.perBankRdBursts::15           20781                       # Per bank write bursts
system.mem_ctrls0.perBankWrBursts::0            13306                       # Per bank write bursts
system.mem_ctrls0.perBankWrBursts::1            13241                       # Per bank write bursts
system.mem_ctrls0.perBankWrBursts::2            13171                       # Per bank write bursts
system.mem_ctrls0.perBankWrBursts::3            13395                       # Per bank write bursts
system.mem_ctrls0.perBankWrBursts::4            13212                       # Per bank write bursts
system.mem_ctrls0.perBankWrBursts::5            13317                       # Per bank write bursts
system.mem_ctrls0.perBankWrBursts::6            13242                       # Per bank write bursts
system.mem_ctrls0.perBankWrBursts::7            13415                       # Per bank write bursts
system.mem_ctrls0.perBankWrBursts::8            13125                       # Per bank write bursts
system.mem_ctrls0.perBankWrBursts::9            13343                       # Per bank write bursts
system.mem_ctrls0.perBankWrBursts::10           13145                       # Per bank write bursts
system.mem_ctrls0.perBankWrBursts::11           13073                       # Per bank write bursts
system.mem_ctrls0.perBankWrBursts::12           13065                       # Per bank write bursts
system.mem_ctrls0.perBankWrBursts::13           13073                       # Per bank write bursts
system.mem_ctrls0.perBankWrBursts::14           13359                       # Per bank write bursts
system.mem_ctrls0.perBankWrBursts::15           13179                       # Per bank write bursts
system.mem_ctrls0.numRdRetry                    99600                       # Number of times read queue was full causing retry
system.mem_ctrls0.numWrRetry                     2842                       # Number of times write queue was full causing retry
system.mem_ctrls0.totGap                 130684760500                       # Total gap between requests
system.mem_ctrls0.readPktSize::0                    0                       # Read request sizes (log2)
system.mem_ctrls0.readPktSize::1                    0                       # Read request sizes (log2)
system.mem_ctrls0.readPktSize::2                    0                       # Read request sizes (log2)
system.mem_ctrls0.readPktSize::3                    0                       # Read request sizes (log2)
system.mem_ctrls0.readPktSize::4                    0                       # Read request sizes (log2)
system.mem_ctrls0.readPktSize::5                    0                       # Read request sizes (log2)
system.mem_ctrls0.readPktSize::6               335224                       # Read request sizes (log2)
system.mem_ctrls0.writePktSize::0                   0                       # Write request sizes (log2)
system.mem_ctrls0.writePktSize::1                   0                       # Write request sizes (log2)
system.mem_ctrls0.writePktSize::2                   0                       # Write request sizes (log2)
system.mem_ctrls0.writePktSize::3                   0                       # Write request sizes (log2)
system.mem_ctrls0.writePktSize::4                   0                       # Write request sizes (log2)
system.mem_ctrls0.writePktSize::5                   0                       # Write request sizes (log2)
system.mem_ctrls0.writePktSize::6              211662                       # Write request sizes (log2)
system.mem_ctrls0.rdQLenPdf::0                 175696                       # What read queue length does an incoming req see
system.mem_ctrls0.rdQLenPdf::1                   5064                       # What read queue length does an incoming req see
system.mem_ctrls0.rdQLenPdf::2                   2317                       # What read queue length does an incoming req see
system.mem_ctrls0.rdQLenPdf::3                    940                       # What read queue length does an incoming req see
system.mem_ctrls0.rdQLenPdf::4                   1063                       # What read queue length does an incoming req see
system.mem_ctrls0.rdQLenPdf::5                   1126                       # What read queue length does an incoming req see
system.mem_ctrls0.rdQLenPdf::6                   1279                       # What read queue length does an incoming req see
system.mem_ctrls0.rdQLenPdf::7                   1418                       # What read queue length does an incoming req see
system.mem_ctrls0.rdQLenPdf::8                   1439                       # What read queue length does an incoming req see
system.mem_ctrls0.rdQLenPdf::9                   1583                       # What read queue length does an incoming req see
system.mem_ctrls0.rdQLenPdf::10                  1684                       # What read queue length does an incoming req see
system.mem_ctrls0.rdQLenPdf::11                  1751                       # What read queue length does an incoming req see
system.mem_ctrls0.rdQLenPdf::12                  1734                       # What read queue length does an incoming req see
system.mem_ctrls0.rdQLenPdf::13                  1825                       # What read queue length does an incoming req see
system.mem_ctrls0.rdQLenPdf::14                  1899                       # What read queue length does an incoming req see
system.mem_ctrls0.rdQLenPdf::15                  1900                       # What read queue length does an incoming req see
system.mem_ctrls0.rdQLenPdf::16                  1876                       # What read queue length does an incoming req see
system.mem_ctrls0.rdQLenPdf::17                  1830                       # What read queue length does an incoming req see
system.mem_ctrls0.rdQLenPdf::18                  1834                       # What read queue length does an incoming req see
system.mem_ctrls0.rdQLenPdf::19                  1869                       # What read queue length does an incoming req see
system.mem_ctrls0.rdQLenPdf::20                  1880                       # What read queue length does an incoming req see
system.mem_ctrls0.rdQLenPdf::21                  1846                       # What read queue length does an incoming req see
system.mem_ctrls0.rdQLenPdf::22                  1919                       # What read queue length does an incoming req see
system.mem_ctrls0.rdQLenPdf::23                  2012                       # What read queue length does an incoming req see
system.mem_ctrls0.rdQLenPdf::24                  2037                       # What read queue length does an incoming req see
system.mem_ctrls0.rdQLenPdf::25                  2010                       # What read queue length does an incoming req see
system.mem_ctrls0.rdQLenPdf::26                  2073                       # What read queue length does an incoming req see
system.mem_ctrls0.rdQLenPdf::27                  2136                       # What read queue length does an incoming req see
system.mem_ctrls0.rdQLenPdf::28                  2236                       # What read queue length does an incoming req see
system.mem_ctrls0.rdQLenPdf::29                  2187                       # What read queue length does an incoming req see
system.mem_ctrls0.rdQLenPdf::30                  2296                       # What read queue length does an incoming req see
system.mem_ctrls0.rdQLenPdf::31                102449                       # What read queue length does an incoming req see
system.mem_ctrls0.wrQLenPdf::0                  37610                       # What write queue length does an incoming req see
system.mem_ctrls0.wrQLenPdf::1                  38586                       # What write queue length does an incoming req see
system.mem_ctrls0.wrQLenPdf::2                  39092                       # What write queue length does an incoming req see
system.mem_ctrls0.wrQLenPdf::3                  39331                       # What write queue length does an incoming req see
system.mem_ctrls0.wrQLenPdf::4                  39217                       # What write queue length does an incoming req see
system.mem_ctrls0.wrQLenPdf::5                   5506                       # What write queue length does an incoming req see
system.mem_ctrls0.wrQLenPdf::6                   5990                       # What write queue length does an incoming req see
system.mem_ctrls0.wrQLenPdf::7                   6330                       # What write queue length does an incoming req see
system.mem_ctrls0.bytesPerActivate::samples       153013                       # Bytes accessed per row activation
system.mem_ctrls0.bytesPerActivate::mean   228.735807                       # Bytes accessed per row activation
system.mem_ctrls0.bytesPerActivate::gmean   167.749862                       # Bytes accessed per row activation
system.mem_ctrls0.bytesPerActivate::stdev   189.555941                       # Bytes accessed per row activation
system.mem_ctrls0.bytesPerActivate::0-127        52013     33.99%     33.99% # Bytes accessed per row activation
system.mem_ctrls0.bytesPerActivate::128-255        30587     19.99%     53.98% # Bytes accessed per row activation
system.mem_ctrls0.bytesPerActivate::256-383        53110     34.71%     88.69% # Bytes accessed per row activation
system.mem_ctrls0.bytesPerActivate::384-511         6020      3.93%     92.63% # Bytes accessed per row activation
system.mem_ctrls0.bytesPerActivate::512-639         4088      2.67%     95.30% # Bytes accessed per row activation
system.mem_ctrls0.bytesPerActivate::640-767         2341      1.53%     96.83% # Bytes accessed per row activation
system.mem_ctrls0.bytesPerActivate::768-895         1379      0.90%     97.73% # Bytes accessed per row activation
system.mem_ctrls0.bytesPerActivate::896-1023         1034      0.68%     98.40% # Bytes accessed per row activation
system.mem_ctrls0.bytesPerActivate::1024-1151         2441      1.60%    100.00% # Bytes accessed per row activation
system.mem_ctrls0.bytesPerActivate::total       153013                       # Bytes accessed per row activation
system.mem_ctrls0.rdPerTurnAround::samples        37847                       # Reads before turning the bus around for writes
system.mem_ctrls0.rdPerTurnAround::mean      8.856871                       # Reads before turning the bus around for writes
system.mem_ctrls0.rdPerTurnAround::stdev    24.004389                       # Reads before turning the bus around for writes
system.mem_ctrls0.rdPerTurnAround::0-127        37821     99.93%     99.93% # Reads before turning the bus around for writes
system.mem_ctrls0.rdPerTurnAround::128-255           25      0.07%    100.00% # Reads before turning the bus around for writes
system.mem_ctrls0.rdPerTurnAround::3968-4095            1      0.00%    100.00% # Reads before turning the bus around for writes
system.mem_ctrls0.rdPerTurnAround::total        37847                       # Reads before turning the bus around for writes
system.mem_ctrls0.wrPerTurnAround::samples        37847                       # Writes before turning the bus around for reads
system.mem_ctrls0.wrPerTurnAround::mean      5.592544                       # Writes before turning the bus around for reads
system.mem_ctrls0.wrPerTurnAround::gmean     5.406119                       # Writes before turning the bus around for reads
system.mem_ctrls0.wrPerTurnAround::stdev     1.883207                       # Writes before turning the bus around for reads
system.mem_ctrls0.wrPerTurnAround::4-7          34463     91.06%     91.06% # Writes before turning the bus around for reads
system.mem_ctrls0.wrPerTurnAround::8-11          2248      5.94%     97.00% # Writes before turning the bus around for reads
system.mem_ctrls0.wrPerTurnAround::12-15          708      1.87%     98.87% # Writes before turning the bus around for reads
system.mem_ctrls0.wrPerTurnAround::16-19          428      1.13%    100.00% # Writes before turning the bus around for reads
system.mem_ctrls0.wrPerTurnAround::total        37847                       # Writes before turning the bus around for reads
system.mem_ctrls0.totQLat                 33685591739                       # Total ticks spent queuing
system.mem_ctrls0.totMemAccLat            39970741739                       # Total ticks spent from burst creation until serviced by the DRAM
system.mem_ctrls0.totBusLat                1676040000                       # Total ticks spent in databus transfers
system.mem_ctrls0.avgQLat                   100491.61                       # Average queueing delay per DRAM burst
system.mem_ctrls0.avgBusLat                   5000.00                       # Average bus latency per DRAM burst
system.mem_ctrls0.avgMemAccLat              119241.61                       # Average memory access latency per DRAM burst
system.mem_ctrls0.avgRdBW                      164.16                       # Average DRAM read bandwidth in MiByte/s
system.mem_ctrls0.avgWrBW                      103.66                       # Average achieved write bandwidth in MiByte/s
system.mem_ctrls0.avgRdBWSys                   164.17                       # Average system read bandwidth in MiByte/s
system.mem_ctrls0.avgWrBWSys                   103.66                       # Average system write bandwidth in MiByte/s
system.mem_ctrls0.peakBW                     12800.00                       # Theoretical peak bandwidth in MiByte/s
system.mem_ctrls0.busUtil                        2.09                       # Data bus utilization in percentage
system.mem_ctrls0.busUtilRead                    1.28                       # Data bus utilization in percentage for reads
system.mem_ctrls0.busUtilWrite                   0.81                       # Data bus utilization in percentage for writes
system.mem_ctrls0.avgRdQLen                      1.27                       # Average read queue length when enqueuing
system.mem_ctrls0.avgWrQLen                      2.96                       # Average write queue length when enqueuing
system.mem_ctrls0.readRowHits                  254767                       # Number of row buffer hits during reads
system.mem_ctrls0.writeRowHits                 139088                       # Number of row buffer hits during writes
system.mem_ctrls0.readRowHitRate                76.00                       # Row buffer hit rate for reads
system.mem_ctrls0.writeRowHitRate               65.71                       # Row buffer hit rate for writes
system.mem_ctrls0.avgGap                    238961.61                       # Average gap between requests
system.mem_ctrls0.pageHitRate                   72.02                       # Row buffer hit rate, read and write combined
system.mem_ctrls0.memoryStateTime::IDLE   28041706000                       # Time in different power states
system.mem_ctrls0.memoryStateTime::REF     4363840000                       # Time in different power states
system.mem_ctrls0.memoryStateTime::PRE_PDN            0                       # Time in different power states
system.mem_ctrls0.memoryStateTime::ACT    98279461500                       # Time in different power states
system.mem_ctrls0.memoryStateTime::ACT_PDN            0                       # Time in different power states
system.mem_ctrls0.actEnergy::0              585295200                       # Energy for activate commands per rank (pJ)
system.mem_ctrls0.actEnergy::1              571483080                       # Energy for activate commands per rank (pJ)
system.mem_ctrls0.preEnergy::0              319357500                       # Energy for precharge commands per rank (pJ)
system.mem_ctrls0.preEnergy::1              311821125                       # Energy for precharge commands per rank (pJ)
system.mem_ctrls0.readEnergy::0            1314557400                       # Energy for read commands per rank (pJ)
system.mem_ctrls0.readEnergy::1            1300057200                       # Energy for read commands per rank (pJ)
system.mem_ctrls0.writeEnergy::0            688817520                       # Energy for write commands per rank (pJ)
system.mem_ctrls0.writeEnergy::1            682745760                       # Energy for write commands per rank (pJ)
system.mem_ctrls0.refreshEnergy::0         8535671040                       # Energy for refresh commands per rank (pJ)
system.mem_ctrls0.refreshEnergy::1         8535671040                       # Energy for refresh commands per rank (pJ)
system.mem_ctrls0.actBackEnergy::0        49693857705                       # Energy for active background per rank (pJ)
system.mem_ctrls0.actBackEnergy::1        49257511875                       # Energy for active background per rank (pJ)
system.mem_ctrls0.preBackEnergy::0        34819704750                       # Energy for precharge background per rank (pJ)
system.mem_ctrls0.preBackEnergy::1        35202464250                       # Energy for precharge background per rank (pJ)
system.mem_ctrls0.totalEnergy::0          95957261115                       # Total energy per rank (pJ)
system.mem_ctrls0.totalEnergy::1          95861754330                       # Total energy per rank (pJ)
system.mem_ctrls0.averagePower::0          734.265570                       # Core power per rank (mW)
system.mem_ctrls0.averagePower::1          733.534752                       # Core power per rank (mW)
system.mem_ctrls1.bytes_read::ruby.dir_cntrl1     20799296                       # Number of bytes read from this memory
system.mem_ctrls1.bytes_read::total          20799296                       # Number of bytes read from this memory
system.mem_ctrls1.bytes_written::ruby.dir_cntrl1     12919232                       # Number of bytes written to this memory
system.mem_ctrls1.bytes_written::total       12919232                       # Number of bytes written to this memory
system.mem_ctrls1.num_reads::ruby.dir_cntrl1       324989                       # Number of read requests responded to by this memory
system.mem_ctrls1.num_reads::total             324989                       # Number of read requests responded to by this memory
system.mem_ctrls1.num_writes::ruby.dir_cntrl1       201863                       # Number of write requests responded to by this memory
system.mem_ctrls1.num_writes::total            201863                       # Number of write requests responded to by this memory
system.mem_ctrls1.bw_read::ruby.dir_cntrl1    159155537                       # Total read bandwidth from this memory (bytes/s)
system.mem_ctrls1.bw_read::total            159155537                       # Total read bandwidth from this memory (bytes/s)
system.mem_ctrls1.bw_write::ruby.dir_cntrl1     98857543                       # Write bandwidth from this memory (bytes/s)
system.mem_ctrls1.bw_write::total            98857543                       # Write bandwidth from this memory (bytes/s)
system.mem_ctrls1.bw_total::ruby.dir_cntrl1    258013080                       # Total bandwidth to/from this memory (bytes/s)
system.mem_ctrls1.bw_total::total           258013080                       # Total bandwidth to/from this memory (bytes/s)
system.mem_ctrls1.readReqs                     324989                       # Number of read requests accepted
system.mem_ctrls1.writeReqs                    201863                       # Number of write requests accepted
system.mem_ctrls1.readBursts                   324989                       # Number of DRAM read bursts, including those serviced by the write queue
system.mem_ctrls1.writeBursts                  201863                       # Number of DRAM write bursts, including those merged in the write queue
system.mem_ctrls1.bytesReadDRAM              20798336                       # Total number of bytes read from DRAM
system.mem_ctrls1.bytesReadWrQ                    960                       # Total number of bytes read from write queue
system.mem_ctrls1.bytesWritten               12918976                       # Total number of bytes written to DRAM
system.mem_ctrls1.bytesReadSys               20799296                       # Total read bytes from the system interface side
system.mem_ctrls1.bytesWrittenSys            12919232                       # Total written bytes from the system interface side
system.mem_ctrls1.servicedByWrQ                    15                       # Number of DRAM read bursts serviced by the write queue
system.mem_ctrls1.mergedWrBursts                    0                       # Number of DRAM write bursts merged with an existing one
system.mem_ctrls1.neitherReadNorWriteReqs            0                       # Number of requests that are neither read nor write
system.mem_ctrls1.perBankRdBursts::0            20060                       # Per bank write bursts
system.mem_ctrls1.perBankRdBursts::1            20698                       # Per bank write bursts
system.mem_ctrls1.perBankRdBursts::2            20233                       # Per bank write bursts
system.mem_ctrls1.perBankRdBursts::3            20686                       # Per bank write bursts
system.mem_ctrls1.perBankRdBursts::4            20376                       # Per bank write bursts
system.mem_ctrls1.perBankRdBursts::5            20542                       # Per bank write bursts
system.mem_ctrls1.perBankRdBursts::6            20443                       # Per bank write bursts
system.mem_ctrls1.perBankRdBursts::7            20516                       # Per bank write bursts
system.mem_ctrls1.perBankRdBursts::8            20191                       # Per bank write bursts
system.mem_ctrls1.perBankRdBursts::9            20382                       # Per bank write bursts
system.mem_ctrls1.perBankRdBursts::10           20149                       # Per bank write bursts
system.mem_ctrls1.perBankRdBursts::11           20570                       # Per bank write bursts
system.mem_ctrls1.perBankRdBursts::12           20016                       # Per bank write bursts
system.mem_ctrls1.perBankRdBursts::13           19894                       # Per bank write bursts
system.mem_ctrls1.perBankRdBursts::14           20085                       # Per bank write bursts
system.mem_ctrls1.perBankRdBursts::15           20133                       # Per bank write bursts
system.mem_ctrls1.perBankWrBursts::0            12697                       # Per bank write bursts
system.mem_ctrls1.perBankWrBursts::1            12645                       # Per bank write bursts
system.mem_ctrls1.perBankWrBursts::2            12562                       # Per bank write bursts
system.mem_ctrls1.perBankWrBursts::3            12783                       # Per bank write bursts
system.mem_ctrls1.perBankWrBursts::4            12608                       # Per bank write bursts
system.mem_ctrls1.perBankWrBursts::5            12718                       # Per bank write bursts
system.mem_ctrls1.perBankWrBursts::6            12630                       # Per bank write bursts
system.mem_ctrls1.perBankWrBursts::7            12795                       # Per bank write bursts
system.mem_ctrls1.perBankWrBursts::8            12507                       # Per bank write bursts
system.mem_ctrls1.perBankWrBursts::9            12715                       # Per bank write bursts
system.mem_ctrls1.perBankWrBursts::10           12543                       # Per bank write bursts
system.mem_ctrls1.perBankWrBursts::11           12460                       # Per bank write bursts
system.mem_ctrls1.perBankWrBursts::12           12461                       # Per bank write bursts
system.mem_ctrls1.perBankWrBursts::13           12461                       # Per bank write bursts
system.mem_ctrls1.perBankWrBursts::14           12702                       # Per bank write bursts
system.mem_ctrls1.perBankWrBursts::15           12572                       # Per bank write bursts
system.mem_ctrls1.numRdRetry                    59062                       # Number of times read queue was full causing retry
system.mem_ctrls1.numWrRetry                     2386                       # Number of times write queue was full causing retry
system.mem_ctrls1.totGap                 130684492500                       # Total gap between requests
system.mem_ctrls1.readPktSize::0                    0                       # Read request sizes (log2)
system.mem_ctrls1.readPktSize::1                    0                       # Read request sizes (log2)
system.mem_ctrls1.readPktSize::2                    0                       # Read request sizes (log2)
system.mem_ctrls1.readPktSize::3                    0                       # Read request sizes (log2)
system.mem_ctrls1.readPktSize::4                    0                       # Read request sizes (log2)
system.mem_ctrls1.readPktSize::5                    0                       # Read request sizes (log2)
system.mem_ctrls1.readPktSize::6               324989                       # Read request sizes (log2)
system.mem_ctrls1.writePktSize::0                   0                       # Write request sizes (log2)
system.mem_ctrls1.writePktSize::1                   0                       # Write request sizes (log2)
system.mem_ctrls1.writePktSize::2                   0                       # Write request sizes (log2)
system.mem_ctrls1.writePktSize::3                   0                       # Write request sizes (log2)
system.mem_ctrls1.writePktSize::4                   0                       # Write request sizes (log2)
system.mem_ctrls1.writePktSize::5                   0                       # Write request sizes (log2)
system.mem_ctrls1.writePktSize::6              201863                       # Write request sizes (log2)
system.mem_ctrls1.rdQLenPdf::0                 171156                       # What read queue length does an incoming req see
system.mem_ctrls1.rdQLenPdf::1                   1702                       # What read queue length does an incoming req see
system.mem_ctrls1.rdQLenPdf::2                   1369                       # What read queue length does an incoming req see
system.mem_ctrls1.rdQLenPdf::3                   1529                       # What read queue length does an incoming req see
system.mem_ctrls1.rdQLenPdf::4                   1674                       # What read queue length does an incoming req see
system.mem_ctrls1.rdQLenPdf::5                   1810                       # What read queue length does an incoming req see
system.mem_ctrls1.rdQLenPdf::6                   2013                       # What read queue length does an incoming req see
system.mem_ctrls1.rdQLenPdf::7                   2253                       # What read queue length does an incoming req see
system.mem_ctrls1.rdQLenPdf::8                   2379                       # What read queue length does an incoming req see
system.mem_ctrls1.rdQLenPdf::9                   2671                       # What read queue length does an incoming req see
system.mem_ctrls1.rdQLenPdf::10                  2805                       # What read queue length does an incoming req see
system.mem_ctrls1.rdQLenPdf::11                  2872                       # What read queue length does an incoming req see
system.mem_ctrls1.rdQLenPdf::12                  3053                       # What read queue length does an incoming req see
system.mem_ctrls1.rdQLenPdf::13                  3196                       # What read queue length does an incoming req see
system.mem_ctrls1.rdQLenPdf::14                  3164                       # What read queue length does an incoming req see
system.mem_ctrls1.rdQLenPdf::15                  3225                       # What read queue length does an incoming req see
system.mem_ctrls1.rdQLenPdf::16                  3283                       # What read queue length does an incoming req see
system.mem_ctrls1.rdQLenPdf::17                  3419                       # What read queue length does an incoming req see
system.mem_ctrls1.rdQLenPdf::18                  3429                       # What read queue length does an incoming req see
system.mem_ctrls1.rdQLenPdf::19                  3386                       # What read queue length does an incoming req see
system.mem_ctrls1.rdQLenPdf::20                  3448                       # What read queue length does an incoming req see
system.mem_ctrls1.rdQLenPdf::21                  3465                       # What read queue length does an incoming req see
system.mem_ctrls1.rdQLenPdf::22                  3620                       # What read queue length does an incoming req see
system.mem_ctrls1.rdQLenPdf::23                  3649                       # What read queue length does an incoming req see
system.mem_ctrls1.rdQLenPdf::24                  3717                       # What read queue length does an incoming req see
system.mem_ctrls1.rdQLenPdf::25                  3717                       # What read queue length does an incoming req see
system.mem_ctrls1.rdQLenPdf::26                  3847                       # What read queue length does an incoming req see
system.mem_ctrls1.rdQLenPdf::27                  3881                       # What read queue length does an incoming req see
system.mem_ctrls1.rdQLenPdf::28                  3881                       # What read queue length does an incoming req see
system.mem_ctrls1.rdQLenPdf::29                  4036                       # What read queue length does an incoming req see
system.mem_ctrls1.rdQLenPdf::30                  4018                       # What read queue length does an incoming req see
system.mem_ctrls1.rdQLenPdf::31                 63307                       # What read queue length does an incoming req see
system.mem_ctrls1.wrQLenPdf::0                  35793                       # What write queue length does an incoming req see
system.mem_ctrls1.wrQLenPdf::1                  36772                       # What write queue length does an incoming req see
system.mem_ctrls1.wrQLenPdf::2                  37212                       # What write queue length does an incoming req see
system.mem_ctrls1.wrQLenPdf::3                  37565                       # What write queue length does an incoming req see
system.mem_ctrls1.wrQLenPdf::4                  37721                       # What write queue length does an incoming req see
system.mem_ctrls1.wrQLenPdf::5                   5516                       # What write queue length does an incoming req see
system.mem_ctrls1.wrQLenPdf::6                   5768                       # What write queue length does an incoming req see
system.mem_ctrls1.wrQLenPdf::7                   5516                       # What write queue length does an incoming req see
system.mem_ctrls1.bytesPerActivate::samples       126769                       # Bytes accessed per row activation
system.mem_ctrls1.bytesPerActivate::mean   265.973921                       # Bytes accessed per row activation
system.mem_ctrls1.bytesPerActivate::gmean   206.262004                       # Bytes accessed per row activation
system.mem_ctrls1.bytesPerActivate::stdev   196.243170                       # Bytes accessed per row activation
system.mem_ctrls1.bytesPerActivate::0-127        25532     20.14%     20.14% # Bytes accessed per row activation
system.mem_ctrls1.bytesPerActivate::128-255        30022     23.68%     43.82% # Bytes accessed per row activation
system.mem_ctrls1.bytesPerActivate::256-383        53047     41.85%     85.67% # Bytes accessed per row activation
system.mem_ctrls1.bytesPerActivate::384-511         5944      4.69%     90.36% # Bytes accessed per row activation
system.mem_ctrls1.bytesPerActivate::512-639         4533      3.58%     93.93% # Bytes accessed per row activation
system.mem_ctrls1.bytesPerActivate::640-767         2289      1.81%     95.74% # Bytes accessed per row activation
system.mem_ctrls1.bytesPerActivate::768-895         1419      1.12%     96.86% # Bytes accessed per row activation
system.mem_ctrls1.bytesPerActivate::896-1023         1051      0.83%     97.69% # Bytes accessed per row activation
system.mem_ctrls1.bytesPerActivate::1024-1151         2932      2.31%    100.00% # Bytes accessed per row activation
system.mem_ctrls1.bytesPerActivate::total       126769                       # Bytes accessed per row activation
system.mem_ctrls1.rdPerTurnAround::samples        36111                       # Reads before turning the bus around for writes
system.mem_ctrls1.rdPerTurnAround::mean      8.998394                       # Reads before turning the bus around for writes
system.mem_ctrls1.rdPerTurnAround::stdev    21.299364                       # Reads before turning the bus around for writes
system.mem_ctrls1.rdPerTurnAround::0-127        36067     99.88%     99.88% # Reads before turning the bus around for writes
system.mem_ctrls1.rdPerTurnAround::128-255           42      0.12%     99.99% # Reads before turning the bus around for writes
system.mem_ctrls1.rdPerTurnAround::1152-1279            1      0.00%    100.00% # Reads before turning the bus around for writes
system.mem_ctrls1.rdPerTurnAround::2816-2943            1      0.00%    100.00% # Reads before turning the bus around for writes
system.mem_ctrls1.rdPerTurnAround::total        36111                       # Reads before turning the bus around for writes
system.mem_ctrls1.wrPerTurnAround::samples        36111                       # Writes before turning the bus around for reads
system.mem_ctrls1.wrPerTurnAround::mean      5.589959                       # Writes before turning the bus around for reads
system.mem_ctrls1.wrPerTurnAround::gmean     5.396502                       # Writes before turning the bus around for reads
system.mem_ctrls1.wrPerTurnAround::stdev     1.923988                       # Writes before turning the bus around for reads
system.mem_ctrls1.wrPerTurnAround::4-7          32788     90.80%     90.80% # Writes before turning the bus around for reads
system.mem_ctrls1.wrPerTurnAround::8-11          2131      5.90%     96.70% # Writes before turning the bus around for reads
system.mem_ctrls1.wrPerTurnAround::12-15          772      2.14%     98.84% # Writes before turning the bus around for reads
system.mem_ctrls1.wrPerTurnAround::16-19          420      1.16%    100.00% # Writes before turning the bus around for reads
system.mem_ctrls1.wrPerTurnAround::total        36111                       # Writes before turning the bus around for reads
system.mem_ctrls1.totQLat                 28712736918                       # Total ticks spent queuing
system.mem_ctrls1.totMemAccLat            34805999418                       # Total ticks spent from burst creation until serviced by the DRAM
system.mem_ctrls1.totBusLat                1624870000                       # Total ticks spent in databus transfers
system.mem_ctrls1.avgQLat                    88353.95                       # Average queueing delay per DRAM burst
system.mem_ctrls1.avgBusLat                   5000.00                       # Average bus latency per DRAM burst
system.mem_ctrls1.avgMemAccLat              107103.95                       # Average memory access latency per DRAM burst
system.mem_ctrls1.avgRdBW                      159.15                       # Average DRAM read bandwidth in MiByte/s
system.mem_ctrls1.avgWrBW                       98.86                       # Average achieved write bandwidth in MiByte/s
system.mem_ctrls1.avgRdBWSys                   159.16                       # Average system read bandwidth in MiByte/s
system.mem_ctrls1.avgWrBWSys                    98.86                       # Average system write bandwidth in MiByte/s
system.mem_ctrls1.peakBW                     12800.00                       # Theoretical peak bandwidth in MiByte/s
system.mem_ctrls1.busUtil                        2.02                       # Data bus utilization in percentage
system.mem_ctrls1.busUtilRead                    1.24                       # Data bus utilization in percentage for reads
system.mem_ctrls1.busUtilWrite                   0.77                       # Data bus utilization in percentage for writes
system.mem_ctrls1.avgRdQLen                      1.23                       # Average read queue length when enqueuing
system.mem_ctrls1.avgWrQLen                      2.98                       # Average write queue length when enqueuing
system.mem_ctrls1.readRowHits                  255061                       # Number of row buffer hits during reads
system.mem_ctrls1.writeRowHits                 145002                       # Number of row buffer hits during writes
system.mem_ctrls1.readRowHitRate                78.49                       # Row buffer hit rate for reads
system.mem_ctrls1.writeRowHitRate               71.83                       # Row buffer hit rate for writes
system.mem_ctrls1.avgGap                    248047.82                       # Average gap between requests
system.mem_ctrls1.pageHitRate                   75.94                       # Row buffer hit rate, read and write combined
system.mem_ctrls1.memoryStateTime::IDLE   28549274250                       # Time in different power states
system.mem_ctrls1.memoryStateTime::REF     4363840000                       # Time in different power states
system.mem_ctrls1.memoryStateTime::PRE_PDN            0                       # Time in different power states
system.mem_ctrls1.memoryStateTime::ACT    97772005750                       # Time in different power states
system.mem_ctrls1.memoryStateTime::ACT_PDN            0                       # Time in different power states
system.mem_ctrls1.actEnergy::0              486622080                       # Energy for activate commands per rank (pJ)
system.mem_ctrls1.actEnergy::1              471751560                       # Energy for activate commands per rank (pJ)
system.mem_ctrls1.preEnergy::0              265518000                       # Energy for precharge commands per rank (pJ)
system.mem_ctrls1.preEnergy::1              257404125                       # Energy for precharge commands per rank (pJ)
system.mem_ctrls1.readEnergy::0            1275721200                       # Energy for read commands per rank (pJ)
system.mem_ctrls1.readEnergy::1            1259068200                       # Energy for read commands per rank (pJ)
system.mem_ctrls1.writeEnergy::0            657318240                       # Energy for write commands per rank (pJ)
system.mem_ctrls1.writeEnergy::1            650728080                       # Energy for write commands per rank (pJ)
system.mem_ctrls1.refreshEnergy::0         8535671040                       # Energy for refresh commands per rank (pJ)
system.mem_ctrls1.refreshEnergy::1         8535671040                       # Energy for refresh commands per rank (pJ)
system.mem_ctrls1.actBackEnergy::0        49132643400                       # Energy for active background per rank (pJ)
system.mem_ctrls1.actBackEnergy::1        48186912510                       # Energy for active background per rank (pJ)
system.mem_ctrls1.preBackEnergy::0        35311998000                       # Energy for precharge background per rank (pJ)
system.mem_ctrls1.preBackEnergy::1        36141586500                       # Energy for precharge background per rank (pJ)
system.mem_ctrls1.totalEnergy::0          95665491960                       # Total energy per rank (pJ)
system.mem_ctrls1.totalEnergy::1          95503122015                       # Total energy per rank (pJ)
system.mem_ctrls1.averagePower::0          732.032951                       # Core power per rank (mW)
system.mem_ctrls1.averagePower::1          730.790495                       # Core power per rank (mW)
system.mem_ctrls2.bytes_read::ruby.dir_cntrl2     20797696                       # Number of bytes read from this memory
system.mem_ctrls2.bytes_read::total          20797696                       # Number of bytes read from this memory
system.mem_ctrls2.bytes_written::ruby.dir_cntrl2     12919744                       # Number of bytes written to this memory
system.mem_ctrls2.bytes_written::total       12919744                       # Number of bytes written to this memory
system.mem_ctrls2.num_reads::ruby.dir_cntrl2       324964                       # Number of read requests responded to by this memory
system.mem_ctrls2.num_reads::total             324964                       # Number of read requests responded to by this memory
system.mem_ctrls2.num_writes::ruby.dir_cntrl2       201871                       # Number of write requests responded to by this memory
system.mem_ctrls2.num_writes::total            201871                       # Number of write requests responded to by this memory
system.mem_ctrls2.bw_read::ruby.dir_cntrl2    159143294                       # Total read bandwidth from this memory (bytes/s)
system.mem_ctrls2.bw_read::total            159143294                       # Total read bandwidth from this memory (bytes/s)
system.mem_ctrls2.bw_write::ruby.dir_cntrl2     98861461                       # Write bandwidth from this memory (bytes/s)
system.mem_ctrls2.bw_write::total            98861461                       # Write bandwidth from this memory (bytes/s)
system.mem_ctrls2.bw_total::ruby.dir_cntrl2    258004755                       # Total bandwidth to/from this memory (bytes/s)
system.mem_ctrls2.bw_total::total           258004755                       # Total bandwidth to/from this memory (bytes/s)
system.mem_ctrls2.readReqs                     324964                       # Number of read requests accepted
system.mem_ctrls2.writeReqs                    201871                       # Number of write requests accepted
system.mem_ctrls2.readBursts                   324964                       # Number of DRAM read bursts, including those serviced by the write queue
system.mem_ctrls2.writeBursts                  201871                       # Number of DRAM write bursts, including those merged in the write queue
system.mem_ctrls2.bytesReadDRAM              20796736                       # Total number of bytes read from DRAM
system.mem_ctrls2.bytesReadWrQ                    960                       # Total number of bytes read from write queue
system.mem_ctrls2.bytesWritten               12919744                       # Total number of bytes written to DRAM
system.mem_ctrls2.bytesReadSys               20797696                       # Total read bytes from the system interface side
system.mem_ctrls2.bytesWrittenSys            12919744                       # Total written bytes from the system interface side
system.mem_ctrls2.servicedByWrQ                    15                       # Number of DRAM read bursts serviced by the write queue
system.mem_ctrls2.mergedWrBursts                    0                       # Number of DRAM write bursts merged with an existing one
system.mem_ctrls2.neitherReadNorWriteReqs            0                       # Number of requests that are neither read nor write
system.mem_ctrls2.perBankRdBursts::0            20056                       # Per bank write bursts
system.mem_ctrls2.perBankRdBursts::1            20680                       # Per bank write bursts
system.mem_ctrls2.perBankRdBursts::2            20244                       # Per bank write bursts
system.mem_ctrls2.perBankRdBursts::3            20730                       # Per bank write bursts
system.mem_ctrls2.perBankRdBursts::4            20381                       # Per bank write bursts
system.mem_ctrls2.perBankRdBursts::5            20527                       # Per bank write bursts
system.mem_ctrls2.perBankRdBursts::6            20413                       # Per bank write bursts
system.mem_ctrls2.perBankRdBursts::7            20491                       # Per bank write bursts
system.mem_ctrls2.perBankRdBursts::8            20154                       # Per bank write bursts
system.mem_ctrls2.perBankRdBursts::9            20392                       # Per bank write bursts
system.mem_ctrls2.perBankRdBursts::10           20157                       # Per bank write bursts
system.mem_ctrls2.perBankRdBursts::11           20587                       # Per bank write bursts
system.mem_ctrls2.perBankRdBursts::12           20036                       # Per bank write bursts
system.mem_ctrls2.perBankRdBursts::13           19854                       # Per bank write bursts
system.mem_ctrls2.perBankRdBursts::14           20078                       # Per bank write bursts
system.mem_ctrls2.perBankRdBursts::15           20169                       # Per bank write bursts
system.mem_ctrls2.perBankWrBursts::0            12691                       # Per bank write bursts
system.mem_ctrls2.perBankWrBursts::1            12644                       # Per bank write bursts
system.mem_ctrls2.perBankWrBursts::2            12558                       # Per bank write bursts
system.mem_ctrls2.perBankWrBursts::3            12791                       # Per bank write bursts
system.mem_ctrls2.perBankWrBursts::4            12610                       # Per bank write bursts
system.mem_ctrls2.perBankWrBursts::5            12702                       # Per bank write bursts
system.mem_ctrls2.perBankWrBursts::6            12638                       # Per bank write bursts
system.mem_ctrls2.perBankWrBursts::7            12794                       # Per bank write bursts
system.mem_ctrls2.perBankWrBursts::8            12492                       # Per bank write bursts
system.mem_ctrls2.perBankWrBursts::9            12721                       # Per bank write bursts
system.mem_ctrls2.perBankWrBursts::10           12540                       # Per bank write bursts
system.mem_ctrls2.perBankWrBursts::11           12474                       # Per bank write bursts
system.mem_ctrls2.perBankWrBursts::12           12468                       # Per bank write bursts
system.mem_ctrls2.perBankWrBursts::13           12455                       # Per bank write bursts
system.mem_ctrls2.perBankWrBursts::14           12708                       # Per bank write bursts
system.mem_ctrls2.perBankWrBursts::15           12585                       # Per bank write bursts
system.mem_ctrls2.numRdRetry                    56299                       # Number of times read queue was full causing retry
system.mem_ctrls2.numWrRetry                     2326                       # Number of times write queue was full causing retry
system.mem_ctrls2.totGap                 130685240000                       # Total gap between requests
system.mem_ctrls2.readPktSize::0                    0                       # Read request sizes (log2)
system.mem_ctrls2.readPktSize::1                    0                       # Read request sizes (log2)
system.mem_ctrls2.readPktSize::2                    0                       # Read request sizes (log2)
system.mem_ctrls2.readPktSize::3                    0                       # Read request sizes (log2)
system.mem_ctrls2.readPktSize::4                    0                       # Read request sizes (log2)
system.mem_ctrls2.readPktSize::5                    0                       # Read request sizes (log2)
system.mem_ctrls2.readPktSize::6               324964                       # Read request sizes (log2)
system.mem_ctrls2.writePktSize::0                   0                       # Write request sizes (log2)
system.mem_ctrls2.writePktSize::1                   0                       # Write request sizes (log2)
system.mem_ctrls2.writePktSize::2                   0                       # Write request sizes (log2)
system.mem_ctrls2.writePktSize::3                   0                       # Write request sizes (log2)
system.mem_ctrls2.writePktSize::4                   0                       # Write request sizes (log2)
system.mem_ctrls2.writePktSize::5                   0                       # Write request sizes (log2)
system.mem_ctrls2.writePktSize::6              201871                       # Write request sizes (log2)
system.mem_ctrls2.rdQLenPdf::0                 171377                       # What read queue length does an incoming req see
system.mem_ctrls2.rdQLenPdf::1                   1581                       # What read queue length does an incoming req see
system.mem_ctrls2.rdQLenPdf::2                   1385                       # What read queue length does an incoming req see
system.mem_ctrls2.rdQLenPdf::3                   1492                       # What read queue length does an incoming req see
system.mem_ctrls2.rdQLenPdf::4                   1663                       # What read queue length does an incoming req see
system.mem_ctrls2.rdQLenPdf::5                   1962                       # What read queue length does an incoming req see
system.mem_ctrls2.rdQLenPdf::6                   2219                       # What read queue length does an incoming req see
system.mem_ctrls2.rdQLenPdf::7                   2402                       # What read queue length does an incoming req see
system.mem_ctrls2.rdQLenPdf::8                   2528                       # What read queue length does an incoming req see
system.mem_ctrls2.rdQLenPdf::9                   2656                       # What read queue length does an incoming req see
system.mem_ctrls2.rdQLenPdf::10                  2893                       # What read queue length does an incoming req see
system.mem_ctrls2.rdQLenPdf::11                  2918                       # What read queue length does an incoming req see
system.mem_ctrls2.rdQLenPdf::12                  3020                       # What read queue length does an incoming req see
system.mem_ctrls2.rdQLenPdf::13                  3053                       # What read queue length does an incoming req see
system.mem_ctrls2.rdQLenPdf::14                  3207                       # What read queue length does an incoming req see
system.mem_ctrls2.rdQLenPdf::15                  3329                       # What read queue length does an incoming req see
system.mem_ctrls2.rdQLenPdf::16                  3387                       # What read queue length does an incoming req see
system.mem_ctrls2.rdQLenPdf::17                  3510                       # What read queue length does an incoming req see
system.mem_ctrls2.rdQLenPdf::18                  3566                       # What read queue length does an incoming req see
system.mem_ctrls2.rdQLenPdf::19                  3574                       # What read queue length does an incoming req see
system.mem_ctrls2.rdQLenPdf::20                  3637                       # What read queue length does an incoming req see
system.mem_ctrls2.rdQLenPdf::21                  3602                       # What read queue length does an incoming req see
system.mem_ctrls2.rdQLenPdf::22                  3641                       # What read queue length does an incoming req see
system.mem_ctrls2.rdQLenPdf::23                  3787                       # What read queue length does an incoming req see
system.mem_ctrls2.rdQLenPdf::24                  3800                       # What read queue length does an incoming req see
system.mem_ctrls2.rdQLenPdf::25                  3930                       # What read queue length does an incoming req see
system.mem_ctrls2.rdQLenPdf::26                  3919                       # What read queue length does an incoming req see
system.mem_ctrls2.rdQLenPdf::27                  3933                       # What read queue length does an incoming req see
system.mem_ctrls2.rdQLenPdf::28                  4063                       # What read queue length does an incoming req see
system.mem_ctrls2.rdQLenPdf::29                  4146                       # What read queue length does an incoming req see
system.mem_ctrls2.rdQLenPdf::30                  4159                       # What read queue length does an incoming req see
system.mem_ctrls2.rdQLenPdf::31                 60610                       # What read queue length does an incoming req see
system.mem_ctrls2.wrQLenPdf::0                  35812                       # What write queue length does an incoming req see
system.mem_ctrls2.wrQLenPdf::1                  36826                       # What write queue length does an incoming req see
system.mem_ctrls2.wrQLenPdf::2                  37325                       # What write queue length does an incoming req see
system.mem_ctrls2.wrQLenPdf::3                  37461                       # What write queue length does an incoming req see
system.mem_ctrls2.wrQLenPdf::4                  37645                       # What write queue length does an incoming req see
system.mem_ctrls2.wrQLenPdf::5                   5532                       # What write queue length does an incoming req see
system.mem_ctrls2.wrQLenPdf::6                   5885                       # What write queue length does an incoming req see
system.mem_ctrls2.wrQLenPdf::7                   5385                       # What write queue length does an incoming req see
system.mem_ctrls2.bytesPerActivate::samples       126356                       # Bytes accessed per row activation
system.mem_ctrls2.bytesPerActivate::mean   266.836177                       # Bytes accessed per row activation
system.mem_ctrls2.bytesPerActivate::gmean   207.085113                       # Bytes accessed per row activation
system.mem_ctrls2.bytesPerActivate::stdev   196.084494                       # Bytes accessed per row activation
system.mem_ctrls2.bytesPerActivate::0-127        25545     20.22%     20.22% # Bytes accessed per row activation
system.mem_ctrls2.bytesPerActivate::128-255        28874     22.85%     43.07% # Bytes accessed per row activation
system.mem_ctrls2.bytesPerActivate::256-383        53831     42.60%     85.67% # Bytes accessed per row activation
system.mem_ctrls2.bytesPerActivate::384-511         5924      4.69%     90.36% # Bytes accessed per row activation
system.mem_ctrls2.bytesPerActivate::512-639         4554      3.60%     93.96% # Bytes accessed per row activation
system.mem_ctrls2.bytesPerActivate::640-767         2223      1.76%     95.72% # Bytes accessed per row activation
system.mem_ctrls2.bytesPerActivate::768-895         1427      1.13%     96.85% # Bytes accessed per row activation
system.mem_ctrls2.bytesPerActivate::896-1023          998      0.79%     97.64% # Bytes accessed per row activation
system.mem_ctrls2.bytesPerActivate::1024-1151         2980      2.36%    100.00% # Bytes accessed per row activation
system.mem_ctrls2.bytesPerActivate::total       126356                       # Bytes accessed per row activation
system.mem_ctrls2.rdPerTurnAround::samples        36132                       # Reads before turning the bus around for writes
system.mem_ctrls2.rdPerTurnAround::mean      8.993302                       # Reads before turning the bus around for writes
system.mem_ctrls2.rdPerTurnAround::stdev    21.299369                       # Reads before turning the bus around for writes
system.mem_ctrls2.rdPerTurnAround::0-127        36085     99.87%     99.87% # Reads before turning the bus around for writes
system.mem_ctrls2.rdPerTurnAround::128-255           45      0.12%     99.99% # Reads before turning the bus around for writes
system.mem_ctrls2.rdPerTurnAround::1152-1279            1      0.00%    100.00% # Reads before turning the bus around for writes
system.mem_ctrls2.rdPerTurnAround::2816-2943            1      0.00%    100.00% # Reads before turning the bus around for writes
system.mem_ctrls2.rdPerTurnAround::total        36132                       # Reads before turning the bus around for writes
system.mem_ctrls2.wrPerTurnAround::samples        36132                       # Writes before turning the bus around for reads
system.mem_ctrls2.wrPerTurnAround::mean      5.587042                       # Writes before turning the bus around for reads
system.mem_ctrls2.wrPerTurnAround::gmean     5.394108                       # Writes before turning the bus around for reads
system.mem_ctrls2.wrPerTurnAround::stdev     1.925757                       # Writes before turning the bus around for reads
system.mem_ctrls2.wrPerTurnAround::4-7          32818     90.83%     90.83% # Writes before turning the bus around for reads
system.mem_ctrls2.wrPerTurnAround::8-11          2118      5.86%     96.69% # Writes before turning the bus around for reads
system.mem_ctrls2.wrPerTurnAround::12-15          756      2.09%     98.78% # Writes before turning the bus around for reads
system.mem_ctrls2.wrPerTurnAround::16-19          440      1.22%    100.00% # Writes before turning the bus around for reads
system.mem_ctrls2.wrPerTurnAround::total        36132                       # Writes before turning the bus around for reads
system.mem_ctrls2.totQLat                 28379104330                       # Total ticks spent queuing
system.mem_ctrls2.totMemAccLat            34471898080                       # Total ticks spent from burst creation until serviced by the DRAM
system.mem_ctrls2.totBusLat                1624745000                       # Total ticks spent in databus transfers
system.mem_ctrls2.avgQLat                    87334.03                       # Average queueing delay per DRAM burst
system.mem_ctrls2.avgBusLat                   5000.00                       # Average bus latency per DRAM burst
system.mem_ctrls2.avgMemAccLat              106084.03                       # Average memory access latency per DRAM burst
system.mem_ctrls2.avgRdBW                      159.14                       # Average DRAM read bandwidth in MiByte/s
system.mem_ctrls2.avgWrBW                       98.86                       # Average achieved write bandwidth in MiByte/s
system.mem_ctrls2.avgRdBWSys                   159.14                       # Average system read bandwidth in MiByte/s
system.mem_ctrls2.avgWrBWSys                    98.86                       # Average system write bandwidth in MiByte/s
system.mem_ctrls2.peakBW                     12800.00                       # Theoretical peak bandwidth in MiByte/s
system.mem_ctrls2.busUtil                        2.02                       # Data bus utilization in percentage
system.mem_ctrls2.busUtilRead                    1.24                       # Data bus utilization in percentage for reads
system.mem_ctrls2.busUtilWrite                   0.77                       # Data bus utilization in percentage for writes
system.mem_ctrls2.avgRdQLen                      1.23                       # Average read queue length when enqueuing
system.mem_ctrls2.avgWrQLen                      2.95                       # Average write queue length when enqueuing
system.mem_ctrls2.readRowHits                  255095                       # Number of row buffer hits during reads
system.mem_ctrls2.writeRowHits                 145367                       # Number of row buffer hits during writes
system.mem_ctrls2.readRowHitRate                78.50                       # Row buffer hit rate for reads
system.mem_ctrls2.writeRowHitRate               72.01                       # Row buffer hit rate for writes
system.mem_ctrls2.avgGap                    248057.25                       # Average gap between requests
system.mem_ctrls2.pageHitRate                   76.01                       # Row buffer hit rate, read and write combined
system.mem_ctrls2.memoryStateTime::IDLE   28403544000                       # Time in different power states
system.mem_ctrls2.memoryStateTime::REF     4363840000                       # Time in different power states
system.mem_ctrls2.memoryStateTime::PRE_PDN            0                       # Time in different power states
system.mem_ctrls2.memoryStateTime::ACT    97917331000                       # Time in different power states
system.mem_ctrls2.memoryStateTime::ACT_PDN            0                       # Time in different power states
system.mem_ctrls2.actEnergy::0              485488080                       # Energy for activate commands per rank (pJ)
system.mem_ctrls2.actEnergy::1              469763280                       # Energy for activate commands per rank (pJ)
system.mem_ctrls2.preEnergy::0              264899250                       # Energy for precharge commands per rank (pJ)
system.mem_ctrls2.preEnergy::1              256319250                       # Energy for precharge commands per rank (pJ)
system.mem_ctrls2.readEnergy::0            1275463800                       # Energy for read commands per rank (pJ)
system.mem_ctrls2.readEnergy::1            1259122800                       # Energy for read commands per rank (pJ)
system.mem_ctrls2.writeEnergy::0            657253440                       # Energy for write commands per rank (pJ)
system.mem_ctrls2.writeEnergy::1            650870640                       # Energy for write commands per rank (pJ)
system.mem_ctrls2.refreshEnergy::0         8535671040                       # Energy for refresh commands per rank (pJ)
system.mem_ctrls2.refreshEnergy::1         8535671040                       # Energy for refresh commands per rank (pJ)
system.mem_ctrls2.actBackEnergy::0        48864278565                       # Energy for active background per rank (pJ)
system.mem_ctrls2.actBackEnergy::1        47932691085                       # Energy for active background per rank (pJ)
system.mem_ctrls2.preBackEnergy::0        35547418500                       # Energy for precharge background per rank (pJ)
system.mem_ctrls2.preBackEnergy::1        36364600500                       # Energy for precharge background per rank (pJ)
system.mem_ctrls2.totalEnergy::0          95630472675                       # Total energy per rank (pJ)
system.mem_ctrls2.totalEnergy::1          95469038595                       # Total energy per rank (pJ)
system.mem_ctrls2.averagePower::0          731.764864                       # Core power per rank (mW)
system.mem_ctrls2.averagePower::1          730.529570                       # Core power per rank (mW)
system.mem_ctrls3.bytes_read::ruby.dir_cntrl3     20776512                       # Number of bytes read from this memory
system.mem_ctrls3.bytes_read::total          20776512                       # Number of bytes read from this memory
system.mem_ctrls3.bytes_written::ruby.dir_cntrl3     12918592                       # Number of bytes written to this memory
system.mem_ctrls3.bytes_written::total       12918592                       # Number of bytes written to this memory
system.mem_ctrls3.num_reads::ruby.dir_cntrl3       324633                       # Number of read requests responded to by this memory
system.mem_ctrls3.num_reads::total             324633                       # Number of read requests responded to by this memory
system.mem_ctrls3.num_writes::ruby.dir_cntrl3       201853                       # Number of write requests responded to by this memory
system.mem_ctrls3.num_writes::total            201853                       # Number of write requests responded to by this memory
system.mem_ctrls3.bw_read::ruby.dir_cntrl3    158981194                       # Total read bandwidth from this memory (bytes/s)
system.mem_ctrls3.bw_read::total            158981194                       # Total read bandwidth from this memory (bytes/s)
system.mem_ctrls3.bw_write::ruby.dir_cntrl3     98852646                       # Write bandwidth from this memory (bytes/s)
system.mem_ctrls3.bw_write::total            98852646                       # Write bandwidth from this memory (bytes/s)
system.mem_ctrls3.bw_total::ruby.dir_cntrl3    257833840                       # Total bandwidth to/from this memory (bytes/s)
system.mem_ctrls3.bw_total::total           257833840                       # Total bandwidth to/from this memory (bytes/s)
system.mem_ctrls3.readReqs                     324633                       # Number of read requests accepted
system.mem_ctrls3.writeReqs                    201853                       # Number of write requests accepted
system.mem_ctrls3.readBursts                   324633                       # Number of DRAM read bursts, including those serviced by the write queue
system.mem_ctrls3.writeBursts                  201853                       # Number of DRAM write bursts, including those merged in the write queue
system.mem_ctrls3.bytesReadDRAM              20775680                       # Total number of bytes read from DRAM
system.mem_ctrls3.bytesReadWrQ                    832                       # Total number of bytes read from write queue
system.mem_ctrls3.bytesWritten               12918592                       # Total number of bytes written to DRAM
system.mem_ctrls3.bytesReadSys               20776512                       # Total read bytes from the system interface side
system.mem_ctrls3.bytesWrittenSys            12918592                       # Total written bytes from the system interface side
system.mem_ctrls3.servicedByWrQ                    13                       # Number of DRAM read bursts serviced by the write queue
system.mem_ctrls3.mergedWrBursts                    0                       # Number of DRAM write bursts merged with an existing one
system.mem_ctrls3.neitherReadNorWriteReqs            0                       # Number of requests that are neither read nor write
system.mem_ctrls3.perBankRdBursts::0            20051                       # Per bank write bursts
system.mem_ctrls3.perBankRdBursts::1            20651                       # Per bank write bursts
system.mem_ctrls3.perBankRdBursts::2            20160                       # Per bank write bursts
system.mem_ctrls3.perBankRdBursts::3            20705                       # Per bank write bursts
system.mem_ctrls3.perBankRdBursts::4            20310                       # Per bank write bursts
system.mem_ctrls3.perBankRdBursts::5            20519                       # Per bank write bursts
system.mem_ctrls3.perBankRdBursts::6            20428                       # Per bank write bursts
system.mem_ctrls3.perBankRdBursts::7            20471                       # Per bank write bursts
system.mem_ctrls3.perBankRdBursts::8            20145                       # Per bank write bursts
system.mem_ctrls3.perBankRdBursts::9            20381                       # Per bank write bursts
system.mem_ctrls3.perBankRdBursts::10           20194                       # Per bank write bursts
system.mem_ctrls3.perBankRdBursts::11           20539                       # Per bank write bursts
system.mem_ctrls3.perBankRdBursts::12           19978                       # Per bank write bursts
system.mem_ctrls3.perBankRdBursts::13           19847                       # Per bank write bursts
system.mem_ctrls3.perBankRdBursts::14           20102                       # Per bank write bursts
system.mem_ctrls3.perBankRdBursts::15           20139                       # Per bank write bursts
system.mem_ctrls3.perBankWrBursts::0            12697                       # Per bank write bursts
system.mem_ctrls3.perBankWrBursts::1            12635                       # Per bank write bursts
system.mem_ctrls3.perBankWrBursts::2            12566                       # Per bank write bursts
system.mem_ctrls3.perBankWrBursts::3            12781                       # Per bank write bursts
system.mem_ctrls3.perBankWrBursts::4            12610                       # Per bank write bursts
system.mem_ctrls3.perBankWrBursts::5            12705                       # Per bank write bursts
system.mem_ctrls3.perBankWrBursts::6            12634                       # Per bank write bursts
system.mem_ctrls3.perBankWrBursts::7            12787                       # Per bank write bursts
system.mem_ctrls3.perBankWrBursts::8            12489                       # Per bank write bursts
system.mem_ctrls3.perBankWrBursts::9            12724                       # Per bank write bursts
system.mem_ctrls3.perBankWrBursts::10           12540                       # Per bank write bursts
system.mem_ctrls3.perBankWrBursts::11           12480                       # Per bank write bursts
system.mem_ctrls3.perBankWrBursts::12           12464                       # Per bank write bursts
system.mem_ctrls3.perBankWrBursts::13           12460                       # Per bank write bursts
system.mem_ctrls3.perBankWrBursts::14           12714                       # Per bank write bursts
system.mem_ctrls3.perBankWrBursts::15           12567                       # Per bank write bursts
system.mem_ctrls3.numRdRetry                    54291                       # Number of times read queue was full causing retry
system.mem_ctrls3.numWrRetry                     2256                       # Number of times write queue was full causing retry
system.mem_ctrls3.totGap                 130684509500                       # Total gap between requests
system.mem_ctrls3.readPktSize::0                    0                       # Read request sizes (log2)
system.mem_ctrls3.readPktSize::1                    0                       # Read request sizes (log2)
system.mem_ctrls3.readPktSize::2                    0                       # Read request sizes (log2)
system.mem_ctrls3.readPktSize::3                    0                       # Read request sizes (log2)
system.mem_ctrls3.readPktSize::4                    0                       # Read request sizes (log2)
system.mem_ctrls3.readPktSize::5                    0                       # Read request sizes (log2)
system.mem_ctrls3.readPktSize::6               324633                       # Read request sizes (log2)
system.mem_ctrls3.writePktSize::0                   0                       # Write request sizes (log2)
system.mem_ctrls3.writePktSize::1                   0                       # Write request sizes (log2)
system.mem_ctrls3.writePktSize::2                   0                       # Write request sizes (log2)
system.mem_ctrls3.writePktSize::3                   0                       # Write request sizes (log2)
system.mem_ctrls3.writePktSize::4                   0                       # Write request sizes (log2)
system.mem_ctrls3.writePktSize::5                   0                       # Write request sizes (log2)
system.mem_ctrls3.writePktSize::6              201853                       # Write request sizes (log2)
system.mem_ctrls3.rdQLenPdf::0                 170992                       # What read queue length does an incoming req see
system.mem_ctrls3.rdQLenPdf::1                   1645                       # What read queue length does an incoming req see
system.mem_ctrls3.rdQLenPdf::2                   1414                       # What read queue length does an incoming req see
system.mem_ctrls3.rdQLenPdf::3                   1490                       # What read queue length does an incoming req see
system.mem_ctrls3.rdQLenPdf::4                   1758                       # What read queue length does an incoming req see
system.mem_ctrls3.rdQLenPdf::5                   1940                       # What read queue length does an incoming req see
system.mem_ctrls3.rdQLenPdf::6                   2202                       # What read queue length does an incoming req see
system.mem_ctrls3.rdQLenPdf::7                   2406                       # What read queue length does an incoming req see
system.mem_ctrls3.rdQLenPdf::8                   2497                       # What read queue length does an incoming req see
system.mem_ctrls3.rdQLenPdf::9                   2789                       # What read queue length does an incoming req see
system.mem_ctrls3.rdQLenPdf::10                  2835                       # What read queue length does an incoming req see
system.mem_ctrls3.rdQLenPdf::11                  2947                       # What read queue length does an incoming req see
system.mem_ctrls3.rdQLenPdf::12                  3075                       # What read queue length does an incoming req see
system.mem_ctrls3.rdQLenPdf::13                  3120                       # What read queue length does an incoming req see
system.mem_ctrls3.rdQLenPdf::14                  3151                       # What read queue length does an incoming req see
system.mem_ctrls3.rdQLenPdf::15                  3335                       # What read queue length does an incoming req see
system.mem_ctrls3.rdQLenPdf::16                  3604                       # What read queue length does an incoming req see
system.mem_ctrls3.rdQLenPdf::17                  3736                       # What read queue length does an incoming req see
system.mem_ctrls3.rdQLenPdf::18                  3758                       # What read queue length does an incoming req see
system.mem_ctrls3.rdQLenPdf::19                  3630                       # What read queue length does an incoming req see
system.mem_ctrls3.rdQLenPdf::20                  3641                       # What read queue length does an incoming req see
system.mem_ctrls3.rdQLenPdf::21                  3709                       # What read queue length does an incoming req see
system.mem_ctrls3.rdQLenPdf::22                  3843                       # What read queue length does an incoming req see
system.mem_ctrls3.rdQLenPdf::23                  3950                       # What read queue length does an incoming req see
system.mem_ctrls3.rdQLenPdf::24                  4071                       # What read queue length does an incoming req see
[...]
system.ruby.L2Cache_Controller.S_I.Ack_all::total           32                      
system.ruby.L2Cache_Controller.ISS.Mem_Data |       25575      5.07%      5.07% |       15491      3.07%      8.14% |       15523      3.08%     11.22% |       15470      3.07%     14.29% |       15446      3.06%     17.35% |       15423      3.06%     20.41% |       15431      3.06%     23.47% |       15428      3.06%     26.53% |       15463      3.07%     29.59% |       15472      3.07%     32.66% |       15500      3.07%     35.73% |       15425      3.06%     38.79% |       15434      3.06%     41.85% |       15443      3.06%     44.91% |       15449      3.06%     47.97% |       15417      3.06%     51.03% |       15429      3.06%     54.09% |       15422      3.06%     57.15% |       15448      3.06%     60.21% |       15429      3.06%     63.27% |       15456      3.06%     66.33% |       15458      3.06%     69.40% |       15465      3.07%     72.46% |       15441      3.06%     75.53% |       15455      3.06%     78.59% |       15447      3.06%     81.65% |       15424      3.06%     84.71% |       15409      3.06%     87.77% |       15447      3.06%     90.83% |       15415      3.06%     93.88% |       15409      3.06%     96.94% |       15436      3.06%    100.00%
system.ruby.L2Cache_Controller.ISS.Mem_Data::total       504380                      
system.ruby.L2Cache_Controller.IS.Mem_Data |         503      3.21%      3.21% |         454      2.89%      6.10% |         438      2.79%      8.89% |         449      2.86%     11.75% |         449      2.86%     14.62% |         430      2.74%     17.36% |         472      3.01%     20.37% |         491      3.13%     23.50% |         505      3.22%     26.71% |         445      2.84%     29.55% |         487      3.10%     32.66% |         498      3.17%     35.83% |         551      3.51%     39.34% |         523      3.33%     42.68% |         510      3.25%     45.93% |         492      3.14%     49.06% |         515      3.28%     52.35% |         532      3.39%     55.74% |         529      3.37%     59.11% |         483      3.08%     62.19% |         473      3.02%     65.20% |         523      3.33%     68.54% |         478      3.05%     71.58% |         451      2.87%     74.46% |         519      3.31%     77.77% |         578      3.68%     81.45% |         522      3.33%     84.78% |         480      3.06%     87.84% |         456      2.91%     90.74% |         512      3.26%     94.01% |         487      3.10%     97.11% |         453      2.89%    100.00%
system.ruby.L2Cache_Controller.IS.Mem_Data::total        15688                      
system.ruby.L2Cache_Controller.IM.Mem_Data |       24770      3.14%      3.14% |       24665      3.12%      6.26% |       24674      3.12%      9.38% |       24679      3.13%     12.51% |       24670      3.12%     15.63% |       24674      3.12%     18.76% |       24675      3.12%     21.88% |       24666      3.12%     25.01% |       24681      3.13%     28.13% |       24680      3.13%     31.26% |       24663      3.12%     34.38% |       24687      3.13%     37.51% |       24674      3.12%     40.63% |       24671      3.12%     43.75% |       24669      3.12%     46.88% |       24662      3.12%     50.00% |       24683      3.13%     53.13% |       24680      3.13%     56.25% |       24677      3.12%     59.38% |       24675      3.12%     62.50% |       24688      3.13%     65.63% |       24699      3.13%     68.75% |       24670      3.12%     71.88% |       24674      3.12%     75.00% |       24686      3.13%     78.13% |       24680      3.13%     81.25% |       24683      3.13%     84.38% |       24670      3.12%     87.50% |       24671      3.12%     90.63% |       24672      3.12%     93.75% |       24681      3.13%     96.88% |       24668      3.12%    100.00%
system.ruby.L2Cache_Controller.IM.Mem_Data::total       789717                      
system.ruby.L2Cache_Controller.SS_MB.Exclusive_Unblock |           2      4.17%      4.17% |           4      8.33%     12.50% |           5     10.42%     22.92% |           3      6.25%     29.17% |           0      0.00%     29.17% |           0      0.00%     29.17% |           0      0.00%     29.17% |           0      0.00%     29.17% |           1      2.08%     31.25% |           1      2.08%     33.33% |           0      0.00%     33.33% |           1      2.08%     35.42% |           6     12.50%     47.92% |           0      0.00%     47.92% |           2      4.17%     52.08% |           0      0.00%     52.08% |           0      0.00%     52.08% |           0      0.00%     52.08% |           7     14.58%     66.67% |           5     10.42%     77.08% |           1      2.08%     79.17% |           0      0.00%     79.17% |           0      0.00%     79.17% |           0      0.00%     79.17% |           1      2.08%     81.25% |           1      2.08%     83.33% |           1      2.08%     85.42% |           1      2.08%     87.50% |           5     10.42%     97.92% |           0      0.00%     97.92% |           1      2.08%    100.00% |           0      0.00%    100.00%
system.ruby.L2Cache_Controller.SS_MB.Exclusive_Unblock::total           48                      
system.ruby.L2Cache_Controller.MT_MB.L1_PUTX |           7    100.00%    100.00% |           0      0.00%    100.00% |           0      0.00%    100.00% |           0      0.00%    100.00% |           0      0.00%    100.00% |           0      0.00%    100.00% |           0      0.00%    100.00% |           0      0.00%    100.00% |           0      0.00%    100.00% |           0      0.00%    100.00% |           0      0.00%    100.00% |           0      0.00%    100.00% |           0      0.00%    100.00% |           0      0.00%    100.00% |           0      0.00%    100.00% |           0      0.00%    100.00% |           0      0.00%    100.00% |           0      0.00%    100.00% |           0      0.00%    100.00% |           0      0.00%    100.00% |           0      0.00%    100.00% |           0      0.00%    100.00% |           0      0.00%    100.00% |           0      0.00%    100.00% |           0      0.00%    100.00% |           0      0.00%    100.00% |           0      0.00%    100.00% |           0      0.00%    100.00% |           0      0.00%    100.00% |           0      0.00%    100.00% |           0      0.00%    100.00% |           0      0.00%    100.00%
system.ruby.L2Cache_Controller.MT_MB.L1_PUTX::total            7                      
system.ruby.L2Cache_Controller.MT_MB.Exclusive_Unblock |      171914      9.58%      9.58% |       54290      3.03%     12.61% |       49291      2.75%     15.35% |       52995      2.95%     18.31% |       53514      2.98%     21.29% |       49521      2.76%     24.05% |       45960      2.56%     26.61% |       45968      2.56%     29.17% |       51553      2.87%     32.05% |       49819      2.78%     34.82% |       54070      3.01%     37.84% |       51035      2.84%     40.68% |       48288      2.69%     43.37% |       46919      2.62%     45.99% |       47886      2.67%     48.66% |       46619      2.60%     51.26% |       50579      2.82%     54.08% |       48376      2.70%     56.77% |       49903      2.78%     59.55% |       54016      3.01%     62.56% |       54536      3.04%     65.60% |       63393      3.53%     69.14% |       58011      3.23%     72.37% |       53252      2.97%     75.34% |       53478      2.98%     78.32% |       51444      2.87%     81.19% |       52509      2.93%     84.11% |       52309      2.92%     87.03% |       55507      3.09%     90.12% |       55170      3.07%     93.20% |       63470      3.54%     96.73% |       58593      3.27%    100.00%
system.ruby.L2Cache_Controller.MT_MB.Exclusive_Unblock::total      1794188                      
system.ruby.L2Cache_Controller.MT_IIB.WB_Data |           0      0.00%      0.00% |           0      0.00%      0.00% |           1      7.14%      7.14% |           1      7.14%     14.29% |           1      7.14%     21.43% |           0      0.00%     21.43% |           1      7.14%     28.57% |           0      0.00%     28.57% |           1      7.14%     35.71% |           1      7.14%     42.86% |           1      7.14%     50.00% |           1      7.14%     57.14% |           1      7.14%     64.29% |           0      0.00%     64.29% |           1      7.14%     71.43% |           1      7.14%     78.57% |           1      7.14%     85.71% |           1      7.14%     92.86% |           1      7.14%    100.00% |           0      0.00%    100.00% |           0      0.00%    100.00% |           0      0.00%    100.00% |           0      0.00%    100.00% |           0      0.00%    100.00% |           0      0.00%    100.00% |           0      0.00%    100.00% |           0      0.00%    100.00% |           0      0.00%    100.00% |           0      0.00%    100.00% |           0      0.00%    100.00% |           0      0.00%    100.00% |           0      0.00%    100.00%
system.ruby.L2Cache_Controller.MT_IIB.WB_Data::total           14                      
system.ruby.L2Cache_Controller.MT_IIB.WB_Data_clean |           7    100.00%    100.00% |           0      0.00%    100.00% |           0      0.00%    100.00% |           0      0.00%    100.00% |           0      0.00%    100.00% |           0      0.00%    100.00% |           0      0.00%    100.00% |           0      0.00%    100.00% |           0      0.00%    100.00% |           0      0.00%    100.00% |           0      0.00%    100.00% |           0      0.00%    100.00% |           0      0.00%    100.00% |           0      0.00%    100.00% |           0      0.00%    100.00% |           0      0.00%    100.00% |           0      0.00%    100.00% |           0      0.00%    100.00% |           0      0.00%    100.00% |           0      0.00%    100.00% |           0      0.00%    100.00% |           0      0.00%    100.00% |           0      0.00%    100.00% |           0      0.00%    100.00% |           0      0.00%    100.00% |           0      0.00%    100.00% |           0      0.00%    100.00% |           0      0.00%    100.00% |           0      0.00%    100.00% |           0      0.00%    100.00% |           0      0.00%    100.00% |           0      0.00%    100.00%
system.ruby.L2Cache_Controller.MT_IIB.WB_Data_clean::total            7                      
system.ruby.L2Cache_Controller.MT_IIB.Unblock |           0      0.00%      0.00% |           0      0.00%      0.00% |           0      0.00%      0.00% |           0      0.00%      0.00% |           0      0.00%      0.00% |           0      0.00%      0.00% |           0      0.00%      0.00% |           1     50.00%     50.00% |           0      0.00%     50.00% |           0      0.00%     50.00% |           0      0.00%     50.00% |           0      0.00%     50.00% |           0      0.00%     50.00% |           1     50.00%    100.00% |           0      0.00%    100.00% |           0      0.00%    100.00% |           0      0.00%    100.00% |           0      0.00%    100.00% |           0      0.00%    100.00% |           0      0.00%    100.00% |           0      0.00%    100.00% |           0      0.00%    100.00% |           0      0.00%    100.00% |           0      0.00%    100.00% |           0      0.00%    100.00% |           0      0.00%    100.00% |           0      0.00%    100.00% |           0      0.00%    100.00% |           0      0.00%    100.00% |           0      0.00%    100.00% |           0      0.00%    100.00% |           0      0.00%    100.00%
system.ruby.L2Cache_Controller.MT_IIB.Unblock::total            2                      
system.ruby.L2Cache_Controller.MT_IB.WB_Data |           0      0.00%      0.00% |           0      0.00%      0.00% |           0      0.00%      0.00% |           0      0.00%      0.00% |           0      0.00%      0.00% |           0      0.00%      0.00% |           0      0.00%      0.00% |           1     50.00%     50.00% |           0      0.00%     50.00% |           0      0.00%     50.00% |           0      0.00%     50.00% |           0      0.00%     50.00% |           0      0.00%     50.00% |           1     50.00%    100.00% |           0      0.00%    100.00% |           0      0.00%    100.00% |           0      0.00%    100.00% |           0      0.00%    100.00% |           0      0.00%    100.00% |           0      0.00%    100.00% |           0      0.00%    100.00% |           0      0.00%    100.00% |           0      0.00%    100.00% |           0      0.00%    100.00% |           0      0.00%    100.00% |           0      0.00%    100.00% |           0      0.00%    100.00% |           0      0.00%    100.00% |           0      0.00%    100.00% |           0      0.00%    100.00% |           0      0.00%    100.00% |           0      0.00%    100.00%
system.ruby.L2Cache_Controller.MT_IB.WB_Data::total            2                      
system.ruby.L2Cache_Controller.MT_SB.Unblock |           7     33.33%     33.33% |           0      0.00%     33.33% |           1      4.76%     38.10% |           1      4.76%     42.86% |           1      4.76%     47.62% |           0      0.00%     47.62% |           1      4.76%     52.38% |           0      0.00%     52.38% |           1      4.76%     57.14% |           1      4.76%     61.90% |           1      4.76%     66.67% |           1      4.76%     71.43% |           1      4.76%     76.19% |           0      0.00%     76.19% |           1      4.76%     80.95% |           1      4.76%     85.71% |           1      4.76%     90.48% |           1      4.76%     95.24% |           1      4.76%    100.00% |           0      0.00%    100.00% |           0      0.00%    100.00% |           0      0.00%    100.00% |           0      0.00%    100.00% |           0      0.00%    100.00% |           0      0.00%    100.00% |           0      0.00%    100.00% |           0      0.00%    100.00% |           0      0.00%    100.00% |           0      0.00%    100.00% |           0      0.00%    100.00% |           0      0.00%    100.00% |           0      0.00%    100.00%
system.ruby.L2Cache_Controller.MT_SB.Unblock::total           21                      
system.ruby.SimicsNetworkPortInterface_Controller.MessageSend |       38302     12.06%     12.06% |      158858     50.00%     62.06% |       15020      4.73%     66.78% |       16227      5.11%     71.89% |       14902      4.69%     76.58% |       16209      5.10%     81.68% |       14919      4.70%     86.38% |       17263      5.43%     91.81% |       12228      3.85%     95.66% |       13788      4.34%    100.00% |           0      0.00%    100.00% |           0      0.00%    100.00% |           0      0.00%    100.00% |           0      0.00%    100.00% |           0      0.00%    100.00% |           0      0.00%    100.00% |           0      0.00%    100.00% |           0      0.00%    100.00% |           0      0.00%    100.00% |           0      0.00%    100.00% |           0      0.00%    100.00% |           0      0.00%    100.00% |           0      0.00%    100.00% |           0      0.00%    100.00% |           0      0.00%    100.00% |           0      0.00%    100.00% |           0      0.00%    100.00% |           0      0.00%    100.00% |           0      0.00%    100.00% |           0      0.00%    100.00% |           0      0.00%    100.00% |           0      0.00%    100.00%
system.ruby.SimicsNetworkPortInterface_Controller.MessageSend::total       317716                      
system.ruby.SimicsNetworkPortInterface_Controller.MessageRecv |       38302     12.06%     12.06% |      158858     50.00%     62.06% |       15020      4.73%     66.78% |       16227      5.11%     71.89% |       14902      4.69%     76.58% |       16209      5.10%     81.68% |       14919      4.70%     86.38% |       17263      5.43%     91.81% |       12228      3.85%     95.66% |       13788      4.34%    100.00% |           0      0.00%    100.00% |           0      0.00%    100.00% |           0      0.00%    100.00% |           0      0.00%    100.00% |           0      0.00%    100.00% |           0      0.00%    100.00% |           0      0.00%    100.00% |           0      0.00%    100.00% |           0      0.00%    100.00% |           0      0.00%    100.00% |           0      0.00%    100.00% |           0      0.00%    100.00% |           0      0.00%    100.00% |           0      0.00%    100.00% |           0      0.00%    100.00% |           0      0.00%    100.00% |           0      0.00%    100.00% |           0      0.00%    100.00% |           0      0.00%    100.00% |           0      0.00%    100.00% |           0      0.00%    100.00% |           0      0.00%    100.00%
system.ruby.SimicsNetworkPortInterface_Controller.MessageRecv::total       317716                      
system.ruby.SimicsNetworkPortInterface_Controller.A.MessageSend |       38302     12.06%     12.06% |      158858     50.00%     62.06% |       15020      4.73%     66.78% |       16227      5.11%     71.89% |       14902      4.69%     76.58% |       16209      5.10%     81.68% |       14919      4.70%     86.38% |       17263      5.43%     91.81% |       12228      3.85%     95.66% |       13788      4.34%    100.00% |           0      0.00%    100.00% |           0      0.00%    100.00% |           0      0.00%    100.00% |           0      0.00%    100.00% |           0      0.00%    100.00% |           0      0.00%    100.00% |           0      0.00%    100.00% |           0      0.00%    100.00% |           0      0.00%    100.00% |           0      0.00%    100.00% |           0      0.00%    100.00% |           0      0.00%    100.00% |           0      0.00%    100.00% |           0      0.00%    100.00% |           0      0.00%    100.00% |           0      0.00%    100.00% |           0      0.00%    100.00% |           0      0.00%    100.00% |           0      0.00%    100.00% |           0      0.00%    100.00% |           0      0.00%    100.00% |           0      0.00%    100.00%
system.ruby.SimicsNetworkPortInterface_Controller.A.MessageSend::total       317716                      
system.ruby.SimicsNetworkPortInterface_Controller.A.MessageRecv |       38302     12.06%     12.06% |      158858     50.00%     62.06% |       15020      4.73%     66.78% |       16227      5.11%     71.89% |       14902      4.69%     76.58% |       16209      5.10%     81.68% |       14919      4.70%     86.38% |       17263      5.43%     91.81% |       12228      3.85%     95.66% |       13788      4.34%    100.00% |           0      0.00%    100.00% |           0      0.00%    100.00% |           0      0.00%    100.00% |           0      0.00%    100.00% |           0      0.00%    100.00% |           0      0.00%    100.00% |           0      0.00%    100.00% |           0      0.00%    100.00% |           0      0.00%    100.00% |           0      0.00%    100.00% |           0      0.00%    100.00% |           0      0.00%    100.00% |           0      0.00%    100.00% |           0      0.00%    100.00% |           0      0.00%    100.00% |           0      0.00%    100.00% |           0      0.00%    100.00% |           0      0.00%    100.00% |           0      0.00%    100.00% |           0      0.00%    100.00% |           0      0.00%    100.00% |           0      0.00%    100.00%
system.ruby.SimicsNetworkPortInterface_Controller.A.MessageRecv::total       317716                      
system.switch_cpus.kern.inst.arm                    0                       # number of arm instructions executed
system.switch_cpus.kern.inst.quiesce                0                       # number of quiesce instructions executed

---------- End Simulation Statistics   ----------
