
---------- Begin Simulation Statistics ----------
sim_seconds                                  0.057184                       # Number of seconds simulated
sim_ticks                                 57183895000                       # Number of ticks simulated
final_tick                               5233351973500                       # Number of ticks from beginning of simulation (restored from checkpoints and never reset)
sim_freq                                 1000000000000                       # Frequency of simulated ticks
host_inst_rate                                  31500                       # Simulator instruction rate (inst/s)
host_op_rate                                    55684                       # Simulator op (including micro ops) rate (op/s)
host_tick_rate                               77603293                       # Simulator tick rate (ticks/s)
host_mem_usage                                3557860                       # Number of bytes of host memory used
host_seconds                                   736.87                       # Real time elapsed on the host
sim_insts                                    23211458                       # Number of instructions simulated
sim_ops                                      41031945                       # Number of ops (including micro ops) simulated
system.voltage_domain.voltage                       1                       # Voltage in Volts
system.clk_domain.clock                           500                       # Clock period in ticks
system.mem_ctrls0.bytes_read::ruby.dir_cntrl0     12623616                       # Number of bytes read from this memory
system.mem_ctrls0.bytes_read::total          12623616                       # Number of bytes read from this memory
system.mem_ctrls0.bytes_written::ruby.dir_cntrl0      8055808                       # Number of bytes written to this memory
system.mem_ctrls0.bytes_written::total        8055808                       # Number of bytes written to this memory
system.mem_ctrls0.num_reads::ruby.dir_cntrl0       197244                       # Number of read requests responded to by this memory
system.mem_ctrls0.num_reads::total             197244                       # Number of read requests responded to by this memory
system.mem_ctrls0.num_writes::ruby.dir_cntrl0       125872                       # Number of write requests responded to by this memory
system.mem_ctrls0.num_writes::total            125872                       # Number of write requests responded to by this memory
system.mem_ctrls0.bw_read::ruby.dir_cntrl0    220754742                       # Total read bandwidth from this memory (bytes/s)
system.mem_ctrls0.bw_read::total            220754742                       # Total read bandwidth from this memory (bytes/s)
system.mem_ctrls0.bw_write::ruby.dir_cntrl0    140875469                       # Write bandwidth from this memory (bytes/s)
system.mem_ctrls0.bw_write::total           140875469                       # Write bandwidth from this memory (bytes/s)
system.mem_ctrls0.bw_total::ruby.dir_cntrl0    361630211                       # Total bandwidth to/from this memory (bytes/s)
system.mem_ctrls0.bw_total::total           361630211                       # Total bandwidth to/from this memory (bytes/s)
system.mem_ctrls0.readReqs                     197244                       # Number of read requests accepted
system.mem_ctrls0.writeReqs                    125872                       # Number of write requests accepted
system.mem_ctrls0.readBursts                   197244                       # Number of DRAM read bursts, including those serviced by the write queue
system.mem_ctrls0.writeBursts                  125872                       # Number of DRAM write bursts, including those merged in the write queue
system.mem_ctrls0.bytesReadDRAM              12621824                       # Total number of bytes read from DRAM
system.mem_ctrls0.bytesReadWrQ                   1792                       # Total number of bytes read from write queue
system.mem_ctrls0.bytesWritten                8055552                       # Total number of bytes written to DRAM
system.mem_ctrls0.bytesReadSys               12623616                       # Total read bytes from the system interface side
system.mem_ctrls0.bytesWrittenSys             8055808                       # Total written bytes from the system interface side
system.mem_ctrls0.servicedByWrQ                    28                       # Number of DRAM read bursts serviced by the write queue
system.mem_ctrls0.mergedWrBursts                    0                       # Number of DRAM write bursts merged with an existing one
system.mem_ctrls0.neitherReadNorWriteReqs            0                       # Number of requests that are neither read nor write
system.mem_ctrls0.perBankRdBursts::0            12075                       # Per bank write bursts
system.mem_ctrls0.perBankRdBursts::1            12219                       # Per bank write bursts
system.mem_ctrls0.perBankRdBursts::2            12046                       # Per bank write bursts
system.mem_ctrls0.perBankRdBursts::3            12422                       # Per bank write bursts
system.mem_ctrls0.perBankRdBursts::4            12228                       # Per bank write bursts
system.mem_ctrls0.perBankRdBursts::5            12301                       # Per bank write bursts
system.mem_ctrls0.perBankRdBursts::6            12449                       # Per bank write bursts
system.mem_ctrls0.perBankRdBursts::7            12620                       # Per bank write bursts
system.mem_ctrls0.perBankRdBursts::8            12406                       # Per bank write bursts
system.mem_ctrls0.perBankRdBursts::9            12769                       # Per bank write bursts
system.mem_ctrls0.perBankRdBursts::10           12442                       # Per bank write bursts
system.mem_ctrls0.perBankRdBursts::11           12696                       # Per bank write bursts
system.mem_ctrls0.perBankRdBursts::12           12295                       # Per bank write bursts
system.mem_ctrls0.perBankRdBursts::13           12060                       # Per bank write bursts
system.mem_ctrls0.perBankRdBursts::14           12292                       # Per bank write bursts
system.mem_ctrls0.perBankRdBursts::15           11896                       # Per bank write bursts
system.mem_ctrls0.perBankWrBursts::0             7801                       # Per bank write bursts
system.mem_ctrls0.perBankWrBursts::1             7659                       # Per bank write bursts
system.mem_ctrls0.perBankWrBursts::2             7814                       # Per bank write bursts
system.mem_ctrls0.perBankWrBursts::3             7896                       # Per bank write bursts
system.mem_ctrls0.perBankWrBursts::4             7829                       # Per bank write bursts
system.mem_ctrls0.perBankWrBursts::5             7892                       # Per bank write bursts
system.mem_ctrls0.perBankWrBursts::6             8011                       # Per bank write bursts
system.mem_ctrls0.perBankWrBursts::7             8068                       # Per bank write bursts
system.mem_ctrls0.perBankWrBursts::8             7924                       # Per bank write bursts
system.mem_ctrls0.perBankWrBursts::9             8099                       # Per bank write bursts
system.mem_ctrls0.perBankWrBursts::10            7908                       # Per bank write bursts
system.mem_ctrls0.perBankWrBursts::11            7899                       # Per bank write bursts
system.mem_ctrls0.perBankWrBursts::12            7764                       # Per bank write bursts
system.mem_ctrls0.perBankWrBursts::13            7816                       # Per bank write bursts
system.mem_ctrls0.perBankWrBursts::14            7864                       # Per bank write bursts
system.mem_ctrls0.perBankWrBursts::15            7624                       # Per bank write bursts
system.mem_ctrls0.numRdRetry                      639                       # Number of times read queue was full causing retry
system.mem_ctrls0.numWrRetry                     3044                       # Number of times write queue was full causing retry
system.mem_ctrls0.totGap                  57183406500                       # Total gap between requests
system.mem_ctrls0.readPktSize::0                    0                       # Read request sizes (log2)
system.mem_ctrls0.readPktSize::1                    0                       # Read request sizes (log2)
system.mem_ctrls0.readPktSize::2                    0                       # Read request sizes (log2)
system.mem_ctrls0.readPktSize::3                    0                       # Read request sizes (log2)
system.mem_ctrls0.readPktSize::4                    0                       # Read request sizes (log2)
system.mem_ctrls0.readPktSize::5                    0                       # Read request sizes (log2)
system.mem_ctrls0.readPktSize::6               197244                       # Read request sizes (log2)
system.mem_ctrls0.writePktSize::0                   0                       # Write request sizes (log2)
system.mem_ctrls0.writePktSize::1                   0                       # Write request sizes (log2)
system.mem_ctrls0.writePktSize::2                   0                       # Write request sizes (log2)
system.mem_ctrls0.writePktSize::3                   0                       # Write request sizes (log2)
system.mem_ctrls0.writePktSize::4                   0                       # Write request sizes (log2)
system.mem_ctrls0.writePktSize::5                   0                       # Write request sizes (log2)
system.mem_ctrls0.writePktSize::6              125872                       # Write request sizes (log2)
system.mem_ctrls0.rdQLenPdf::0                  73971                       # What read queue length does an incoming req see
system.mem_ctrls0.rdQLenPdf::1                  10137                       # What read queue length does an incoming req see
system.mem_ctrls0.rdQLenPdf::2                   9259                       # What read queue length does an incoming req see
system.mem_ctrls0.rdQLenPdf::3                   8522                       # What read queue length does an incoming req see
system.mem_ctrls0.rdQLenPdf::4                   8487                       # What read queue length does an incoming req see
system.mem_ctrls0.rdQLenPdf::5                   8479                       # What read queue length does an incoming req see
system.mem_ctrls0.rdQLenPdf::6                   8437                       # What read queue length does an incoming req see
system.mem_ctrls0.rdQLenPdf::7                   7901                       # What read queue length does an incoming req see
system.mem_ctrls0.rdQLenPdf::8                   7357                       # What read queue length does an incoming req see
system.mem_ctrls0.rdQLenPdf::9                   6713                       # What read queue length does an incoming req see
system.mem_ctrls0.rdQLenPdf::10                  6187                       # What read queue length does an incoming req see
system.mem_ctrls0.rdQLenPdf::11                  5604                       # What read queue length does an incoming req see
system.mem_ctrls0.rdQLenPdf::12                  4992                       # What read queue length does an incoming req see
system.mem_ctrls0.rdQLenPdf::13                  4371                       # What read queue length does an incoming req see
system.mem_ctrls0.rdQLenPdf::14                  3923                       # What read queue length does an incoming req see
system.mem_ctrls0.rdQLenPdf::15                  3497                       # What read queue length does an incoming req see
system.mem_ctrls0.rdQLenPdf::16                  3037                       # What read queue length does an incoming req see
system.mem_ctrls0.rdQLenPdf::17                  2545                       # What read queue length does an incoming req see
system.mem_ctrls0.rdQLenPdf::18                  2215                       # What read queue length does an incoming req see
system.mem_ctrls0.rdQLenPdf::19                  1879                       # What read queue length does an incoming req see
system.mem_ctrls0.rdQLenPdf::20                  1636                       # What read queue length does an incoming req see
system.mem_ctrls0.rdQLenPdf::21                  1407                       # What read queue length does an incoming req see
system.mem_ctrls0.rdQLenPdf::22                  1178                       # What read queue length does an incoming req see
system.mem_ctrls0.rdQLenPdf::23                   991                       # What read queue length does an incoming req see
system.mem_ctrls0.rdQLenPdf::24                   845                       # What read queue length does an incoming req see
system.mem_ctrls0.rdQLenPdf::25                   683                       # What read queue length does an incoming req see
system.mem_ctrls0.rdQLenPdf::26                   566                       # What read queue length does an incoming req see
system.mem_ctrls0.rdQLenPdf::27                   498                       # What read queue length does an incoming req see
system.mem_ctrls0.rdQLenPdf::28                   422                       # What read queue length does an incoming req see
system.mem_ctrls0.rdQLenPdf::29                   345                       # What read queue length does an incoming req see
system.mem_ctrls0.rdQLenPdf::30                   275                       # What read queue length does an incoming req see
system.mem_ctrls0.rdQLenPdf::31                   857                       # What read queue length does an incoming req see
system.mem_ctrls0.wrQLenPdf::0                  18833                       # What write queue length does an incoming req see
system.mem_ctrls0.wrQLenPdf::1                  21593                       # What write queue length does an incoming req see
system.mem_ctrls0.wrQLenPdf::2                  22428                       # What write queue length does an incoming req see
system.mem_ctrls0.wrQLenPdf::3                  22648                       # What write queue length does an incoming req see
system.mem_ctrls0.wrQLenPdf::4                  22620                       # What write queue length does an incoming req see
system.mem_ctrls0.wrQLenPdf::5                   6253                       # What write queue length does an incoming req see
system.mem_ctrls0.wrQLenPdf::6                   5514                       # What write queue length does an incoming req see
system.mem_ctrls0.wrQLenPdf::7                   5983                       # What write queue length does an incoming req see
system.mem_ctrls0.bytesPerActivate::samples        80382                       # Bytes accessed per row activation
system.mem_ctrls0.bytesPerActivate::mean   257.233311                       # Bytes accessed per row activation
system.mem_ctrls0.bytesPerActivate::gmean   178.830267                       # Bytes accessed per row activation
system.mem_ctrls0.bytesPerActivate::stdev   240.147448                       # Bytes accessed per row activation
system.mem_ctrls0.bytesPerActivate::0-127        24306     30.24%     30.24% # Bytes accessed per row activation
system.mem_ctrls0.bytesPerActivate::128-255        21124     26.28%     56.52% # Bytes accessed per row activation
system.mem_ctrls0.bytesPerActivate::256-383        20662     25.70%     82.22% # Bytes accessed per row activation
system.mem_ctrls0.bytesPerActivate::384-511         4178      5.20%     87.42% # Bytes accessed per row activation
system.mem_ctrls0.bytesPerActivate::512-639         2831      3.52%     90.94% # Bytes accessed per row activation
system.mem_ctrls0.bytesPerActivate::640-767         1652      2.06%     93.00% # Bytes accessed per row activation
system.mem_ctrls0.bytesPerActivate::768-895         1159      1.44%     94.44% # Bytes accessed per row activation
system.mem_ctrls0.bytesPerActivate::896-1023          958      1.19%     95.63% # Bytes accessed per row activation
system.mem_ctrls0.bytesPerActivate::1024-1151         3512      4.37%    100.00% # Bytes accessed per row activation
system.mem_ctrls0.bytesPerActivate::total        80382                       # Bytes accessed per row activation
system.mem_ctrls0.rdPerTurnAround::samples        19454                       # Reads before turning the bus around for writes
system.mem_ctrls0.rdPerTurnAround::mean     10.136784                       # Reads before turning the bus around for writes
system.mem_ctrls0.rdPerTurnAround::stdev    30.416546                       # Reads before turning the bus around for writes
system.mem_ctrls0.rdPerTurnAround::0-127        19445     99.95%     99.95% # Reads before turning the bus around for writes
system.mem_ctrls0.rdPerTurnAround::128-255            8      0.04%     99.99% # Reads before turning the bus around for writes
system.mem_ctrls0.rdPerTurnAround::3968-4095            1      0.01%    100.00% # Reads before turning the bus around for writes
system.mem_ctrls0.rdPerTurnAround::total        19454                       # Reads before turning the bus around for writes
system.mem_ctrls0.wrPerTurnAround::samples        19454                       # Writes before turning the bus around for reads
system.mem_ctrls0.wrPerTurnAround::mean      6.470032                       # Writes before turning the bus around for reads
system.mem_ctrls0.wrPerTurnAround::gmean     6.044069                       # Writes before turning the bus around for reads
system.mem_ctrls0.wrPerTurnAround::stdev     2.869334                       # Writes before turning the bus around for reads
system.mem_ctrls0.wrPerTurnAround::4-7          15416     79.24%     79.24% # Writes before turning the bus around for reads
system.mem_ctrls0.wrPerTurnAround::8-11          2400     12.34%     91.58% # Writes before turning the bus around for reads
system.mem_ctrls0.wrPerTurnAround::12-15          890      4.57%     96.16% # Writes before turning the bus around for reads
system.mem_ctrls0.wrPerTurnAround::16-19          748      3.84%    100.00% # Writes before turning the bus around for reads
system.mem_ctrls0.wrPerTurnAround::total        19454                       # Writes before turning the bus around for reads
system.mem_ctrls0.totQLat                 13354859804                       # Total ticks spent queuing
system.mem_ctrls0.totMemAccLat            17052659804                       # Total ticks spent from burst creation until serviced by the DRAM
system.mem_ctrls0.totBusLat                 986080000                       # Total ticks spent in databus transfers
system.mem_ctrls0.avgQLat                    67716.92                       # Average queueing delay per DRAM burst
system.mem_ctrls0.avgBusLat                   5000.00                       # Average bus latency per DRAM burst
system.mem_ctrls0.avgMemAccLat               86466.92                       # Average memory access latency per DRAM burst
system.mem_ctrls0.avgRdBW                      220.72                       # Average DRAM read bandwidth in MiByte/s
system.mem_ctrls0.avgWrBW                      140.87                       # Average achieved write bandwidth in MiByte/s
system.mem_ctrls0.avgRdBWSys                   220.75                       # Average system read bandwidth in MiByte/s
system.mem_ctrls0.avgWrBWSys                   140.88                       # Average system write bandwidth in MiByte/s
system.mem_ctrls0.peakBW                     12800.00                       # Theoretical peak bandwidth in MiByte/s
system.mem_ctrls0.busUtil                        2.82                       # Data bus utilization in percentage
system.mem_ctrls0.busUtilRead                    1.72                       # Data bus utilization in percentage for reads
system.mem_ctrls0.busUtilWrite                   1.10                       # Data bus utilization in percentage for writes
system.mem_ctrls0.avgRdQLen                      1.28                       # Average read queue length when enqueuing
system.mem_ctrls0.avgWrQLen                      2.91                       # Average write queue length when enqueuing
system.mem_ctrls0.readRowHits                  155674                       # Number of row buffer hits during reads
system.mem_ctrls0.writeRowHits                  87024                       # Number of row buffer hits during writes
system.mem_ctrls0.readRowHitRate                78.94                       # Row buffer hit rate for reads
system.mem_ctrls0.writeRowHitRate               69.14                       # Row buffer hit rate for writes
system.mem_ctrls0.avgGap                    176974.85                       # Average gap between requests
system.mem_ctrls0.pageHitRate                   75.12                       # Row buffer hit rate, read and write combined
system.mem_ctrls0.memoryStateTime::IDLE   11628835250                       # Time in different power states
system.mem_ctrls0.memoryStateTime::REF     1909440000                       # Time in different power states
system.mem_ctrls0.memoryStateTime::PRE_PDN            0                       # Time in different power states
system.mem_ctrls0.memoryStateTime::ACT    43644218500                       # Time in different power states
system.mem_ctrls0.memoryStateTime::ACT_PDN            0                       # Time in different power states
system.mem_ctrls0.actEnergy::0              305741520                       # Energy for activate commands per rank (pJ)
system.mem_ctrls0.actEnergy::1              301946400                       # Energy for activate commands per rank (pJ)
system.mem_ctrls0.preEnergy::0              166823250                       # Energy for precharge commands per rank (pJ)
system.mem_ctrls0.preEnergy::1              164752500                       # Energy for precharge commands per rank (pJ)
system.mem_ctrls0.readEnergy::0             767208000                       # Energy for read commands per rank (pJ)
system.mem_ctrls0.readEnergy::1             771022200                       # Energy for read commands per rank (pJ)
system.mem_ctrls0.writeEnergy::0            408045600                       # Energy for write commands per rank (pJ)
system.mem_ctrls0.writeEnergy::1            407579040                       # Energy for write commands per rank (pJ)
system.mem_ctrls0.refreshEnergy::0         3734864640                       # Energy for refresh commands per rank (pJ)
system.mem_ctrls0.refreshEnergy::1         3734864640                       # Energy for refresh commands per rank (pJ)
system.mem_ctrls0.actBackEnergy::0        22616197515                       # Energy for active background per rank (pJ)
system.mem_ctrls0.actBackEnergy::1        22093236765                       # Energy for active background per rank (pJ)
system.mem_ctrls0.preBackEnergy::0        14470718250                       # Energy for precharge background per rank (pJ)
system.mem_ctrls0.preBackEnergy::1        14929455750                       # Energy for precharge background per rank (pJ)
system.mem_ctrls0.totalEnergy::0          42469598775                       # Total energy per rank (pJ)
system.mem_ctrls0.totalEnergy::1          42402857295                       # Total energy per rank (pJ)
system.mem_ctrls0.averagePower::0          742.702988                       # Core power per rank (mW)
system.mem_ctrls0.averagePower::1          741.535822                       # Core power per rank (mW)
system.mem_ctrls1.bytes_read::ruby.dir_cntrl1     12403136                       # Number of bytes read from this memory
system.mem_ctrls1.bytes_read::total          12403136                       # Number of bytes read from this memory
system.mem_ctrls1.bytes_written::ruby.dir_cntrl1      7840640                       # Number of bytes written to this memory
system.mem_ctrls1.bytes_written::total        7840640                       # Number of bytes written to this memory
system.mem_ctrls1.num_reads::ruby.dir_cntrl1       193799                       # Number of read requests responded to by this memory
system.mem_ctrls1.num_reads::total             193799                       # Number of read requests responded to by this memory
system.mem_ctrls1.num_writes::ruby.dir_cntrl1       122510                       # Number of write requests responded to by this memory
system.mem_ctrls1.num_writes::total            122510                       # Number of write requests responded to by this memory
system.mem_ctrls1.bw_read::ruby.dir_cntrl1    216899111                       # Total read bandwidth from this memory (bytes/s)
system.mem_ctrls1.bw_read::total            216899111                       # Total read bandwidth from this memory (bytes/s)
system.mem_ctrls1.bw_write::ruby.dir_cntrl1    137112731                       # Write bandwidth from this memory (bytes/s)
system.mem_ctrls1.bw_write::total           137112731                       # Write bandwidth from this memory (bytes/s)
system.mem_ctrls1.bw_total::ruby.dir_cntrl1    354011842                       # Total bandwidth to/from this memory (bytes/s)
system.mem_ctrls1.bw_total::total           354011842                       # Total bandwidth to/from this memory (bytes/s)
system.mem_ctrls1.readReqs                     193799                       # Number of read requests accepted
system.mem_ctrls1.writeReqs                    122510                       # Number of write requests accepted
system.mem_ctrls1.readBursts                   193799                       # Number of DRAM read bursts, including those serviced by the write queue
system.mem_ctrls1.writeBursts                  122510                       # Number of DRAM write bursts, including those merged in the write queue
system.mem_ctrls1.bytesReadDRAM              12401152                       # Total number of bytes read from DRAM
system.mem_ctrls1.bytesReadWrQ                   1984                       # Total number of bytes read from write queue
system.mem_ctrls1.bytesWritten                7840384                       # Total number of bytes written to DRAM
system.mem_ctrls1.bytesReadSys               12403136                       # Total read bytes from the system interface side
system.mem_ctrls1.bytesWrittenSys             7840640                       # Total written bytes from the system interface side
system.mem_ctrls1.servicedByWrQ                    31                       # Number of DRAM read bursts serviced by the write queue
system.mem_ctrls1.mergedWrBursts                    0                       # Number of DRAM write bursts merged with an existing one
system.mem_ctrls1.neitherReadNorWriteReqs            0                       # Number of requests that are neither read nor write
system.mem_ctrls1.perBankRdBursts::0            11867                       # Per bank write bursts
system.mem_ctrls1.perBankRdBursts::1            12000                       # Per bank write bursts
system.mem_ctrls1.perBankRdBursts::2            11825                       # Per bank write bursts
system.mem_ctrls1.perBankRdBursts::3            12192                       # Per bank write bursts
system.mem_ctrls1.perBankRdBursts::4            12030                       # Per bank write bursts
system.mem_ctrls1.perBankRdBursts::5            12124                       # Per bank write bursts
system.mem_ctrls1.perBankRdBursts::6            12265                       # Per bank write bursts
system.mem_ctrls1.perBankRdBursts::7            12418                       # Per bank write bursts
system.mem_ctrls1.perBankRdBursts::8            12179                       # Per bank write bursts
system.mem_ctrls1.perBankRdBursts::9            12544                       # Per bank write bursts
system.mem_ctrls1.perBankRdBursts::10           12214                       # Per bank write bursts
system.mem_ctrls1.perBankRdBursts::11           12509                       # Per bank write bursts
system.mem_ctrls1.perBankRdBursts::12           12074                       # Per bank write bursts
system.mem_ctrls1.perBankRdBursts::13           11833                       # Per bank write bursts
system.mem_ctrls1.perBankRdBursts::14           11985                       # Per bank write bursts
system.mem_ctrls1.perBankRdBursts::15           11709                       # Per bank write bursts
system.mem_ctrls1.perBankWrBursts::0             7601                       # Per bank write bursts
system.mem_ctrls1.perBankWrBursts::1             7470                       # Per bank write bursts
system.mem_ctrls1.perBankWrBursts::2             7617                       # Per bank write bursts
system.mem_ctrls1.perBankWrBursts::3             7686                       # Per bank write bursts
system.mem_ctrls1.perBankWrBursts::4             7634                       # Per bank write bursts
system.mem_ctrls1.perBankWrBursts::5             7698                       # Per bank write bursts
system.mem_ctrls1.perBankWrBursts::6             7788                       # Per bank write bursts
system.mem_ctrls1.perBankWrBursts::7             7850                       # Per bank write bursts
system.mem_ctrls1.perBankWrBursts::8             7714                       # Per bank write bursts
system.mem_ctrls1.perBankWrBursts::9             7884                       # Per bank write bursts
system.mem_ctrls1.perBankWrBursts::10            7690                       # Per bank write bursts
system.mem_ctrls1.perBankWrBursts::11            7691                       # Per bank write bursts
system.mem_ctrls1.perBankWrBursts::12            7554                       # Per bank write bursts
system.mem_ctrls1.perBankWrBursts::13            7603                       # Per bank write bursts
system.mem_ctrls1.perBankWrBursts::14            7598                       # Per bank write bursts
system.mem_ctrls1.perBankWrBursts::15            7428                       # Per bank write bursts
system.mem_ctrls1.numRdRetry                      399                       # Number of times read queue was full causing retry
system.mem_ctrls1.numWrRetry                     3076                       # Number of times write queue was full causing retry
system.mem_ctrls1.totGap                  57183128000                       # Total gap between requests
system.mem_ctrls1.readPktSize::0                    0                       # Read request sizes (log2)
system.mem_ctrls1.readPktSize::1                    0                       # Read request sizes (log2)
system.mem_ctrls1.readPktSize::2                    0                       # Read request sizes (log2)
system.mem_ctrls1.readPktSize::3                    0                       # Read request sizes (log2)
system.mem_ctrls1.readPktSize::4                    0                       # Read request sizes (log2)
system.mem_ctrls1.readPktSize::5                    0                       # Read request sizes (log2)
system.mem_ctrls1.readPktSize::6               193799                       # Read request sizes (log2)
system.mem_ctrls1.writePktSize::0                   0                       # Write request sizes (log2)
system.mem_ctrls1.writePktSize::1                   0                       # Write request sizes (log2)
system.mem_ctrls1.writePktSize::2                   0                       # Write request sizes (log2)
system.mem_ctrls1.writePktSize::3                   0                       # Write request sizes (log2)
system.mem_ctrls1.writePktSize::4                   0                       # Write request sizes (log2)
system.mem_ctrls1.writePktSize::5                   0                       # Write request sizes (log2)
system.mem_ctrls1.writePktSize::6              122510                       # Write request sizes (log2)
system.mem_ctrls1.rdQLenPdf::0                  72733                       # What read queue length does an incoming req see
system.mem_ctrls1.rdQLenPdf::1                   8948                       # What read queue length does an incoming req see
system.mem_ctrls1.rdQLenPdf::2                   8742                       # What read queue length does an incoming req see
system.mem_ctrls1.rdQLenPdf::3                   8775                       # What read queue length does an incoming req see
system.mem_ctrls1.rdQLenPdf::4                   8806                       # What read queue length does an incoming req see
system.mem_ctrls1.rdQLenPdf::5                   8587                       # What read queue length does an incoming req see
system.mem_ctrls1.rdQLenPdf::6                   8387                       # What read queue length does an incoming req see
system.mem_ctrls1.rdQLenPdf::7                   7930                       # What read queue length does an incoming req see
system.mem_ctrls1.rdQLenPdf::8                   7355                       # What read queue length does an incoming req see
system.mem_ctrls1.rdQLenPdf::9                   6758                       # What read queue length does an incoming req see
system.mem_ctrls1.rdQLenPdf::10                  6135                       # What read queue length does an incoming req see
system.mem_ctrls1.rdQLenPdf::11                  5532                       # What read queue length does an incoming req see
system.mem_ctrls1.rdQLenPdf::12                  5001                       # What read queue length does an incoming req see
system.mem_ctrls1.rdQLenPdf::13                  4418                       # What read queue length does an incoming req see
system.mem_ctrls1.rdQLenPdf::14                  3798                       # What read queue length does an incoming req see
system.mem_ctrls1.rdQLenPdf::15                  3317                       # What read queue length does an incoming req see
system.mem_ctrls1.rdQLenPdf::16                  2934                       # What read queue length does an incoming req see
system.mem_ctrls1.rdQLenPdf::17                  2631                       # What read queue length does an incoming req see
system.mem_ctrls1.rdQLenPdf::18                  2222                       # What read queue length does an incoming req see
system.mem_ctrls1.rdQLenPdf::19                  1938                       # What read queue length does an incoming req see
system.mem_ctrls1.rdQLenPdf::20                  1576                       # What read queue length does an incoming req see
system.mem_ctrls1.rdQLenPdf::21                  1341                       # What read queue length does an incoming req see
system.mem_ctrls1.rdQLenPdf::22                  1100                       # What read queue length does an incoming req see
system.mem_ctrls1.rdQLenPdf::23                   948                       # What read queue length does an incoming req see
system.mem_ctrls1.rdQLenPdf::24                   800                       # What read queue length does an incoming req see
system.mem_ctrls1.rdQLenPdf::25                   637                       # What read queue length does an incoming req see
system.mem_ctrls1.rdQLenPdf::26                   569                       # What read queue length does an incoming req see
system.mem_ctrls1.rdQLenPdf::27                   446                       # What read queue length does an incoming req see
system.mem_ctrls1.rdQLenPdf::28                   334                       # What read queue length does an incoming req see
system.mem_ctrls1.rdQLenPdf::29                   284                       # What read queue length does an incoming req see
system.mem_ctrls1.rdQLenPdf::30                   219                       # What read queue length does an incoming req see
system.mem_ctrls1.rdQLenPdf::31                   567                       # What read queue length does an incoming req see
system.mem_ctrls1.wrQLenPdf::0                  18338                       # What write queue length does an incoming req see
system.mem_ctrls1.wrQLenPdf::1                  20969                       # What write queue length does an incoming req see
system.mem_ctrls1.wrQLenPdf::2                  21665                       # What write queue length does an incoming req see
system.mem_ctrls1.wrQLenPdf::3                  21990                       # What write queue length does an incoming req see
system.mem_ctrls1.wrQLenPdf::4                  21875                       # What write queue length does an incoming req see
system.mem_ctrls1.wrQLenPdf::5                   6319                       # What write queue length does an incoming req see
system.mem_ctrls1.wrQLenPdf::6                   5450                       # What write queue length does an incoming req see
system.mem_ctrls1.wrQLenPdf::7                   5904                       # What write queue length does an incoming req see
system.mem_ctrls1.bytesPerActivate::samples        72942                       # Bytes accessed per row activation
system.mem_ctrls1.bytesPerActivate::mean   277.494777                       # Bytes accessed per row activation
system.mem_ctrls1.bytesPerActivate::gmean   196.895587                       # Bytes accessed per row activation
system.mem_ctrls1.bytesPerActivate::stdev   246.896352                       # Bytes accessed per row activation
system.mem_ctrls1.bytesPerActivate::0-127        17984     24.66%     24.66% # Bytes accessed per row activation
system.mem_ctrls1.bytesPerActivate::128-255        19989     27.40%     52.06% # Bytes accessed per row activation
system.mem_ctrls1.bytesPerActivate::256-383        20581     28.22%     80.27% # Bytes accessed per row activation
system.mem_ctrls1.bytesPerActivate::384-511         4154      5.69%     85.97% # Bytes accessed per row activation
system.mem_ctrls1.bytesPerActivate::512-639         2829      3.88%     89.85% # Bytes accessed per row activation
system.mem_ctrls1.bytesPerActivate::640-767         1632      2.24%     92.09% # Bytes accessed per row activation
system.mem_ctrls1.bytesPerActivate::768-895         1172      1.61%     93.69% # Bytes accessed per row activation
system.mem_ctrls1.bytesPerActivate::896-1023          868      1.19%     94.88% # Bytes accessed per row activation
system.mem_ctrls1.bytesPerActivate::1024-1151         3733      5.12%    100.00% # Bytes accessed per row activation
system.mem_ctrls1.bytesPerActivate::total        72942                       # Bytes accessed per row activation
system.mem_ctrls1.rdPerTurnAround::samples        18938                       # Reads before turning the bus around for writes
system.mem_ctrls1.rdPerTurnAround::mean     10.230964                       # Reads before turning the bus around for writes
system.mem_ctrls1.rdPerTurnAround::stdev    25.040682                       # Reads before turning the bus around for writes
system.mem_ctrls1.rdPerTurnAround::0-127        18929     99.95%     99.95% # Reads before turning the bus around for writes
system.mem_ctrls1.rdPerTurnAround::128-255            7      0.04%     99.99% # Reads before turning the bus around for writes
system.mem_ctrls1.rdPerTurnAround::1152-1279            1      0.01%     99.99% # Reads before turning the bus around for writes
system.mem_ctrls1.rdPerTurnAround::2816-2943            1      0.01%    100.00% # Reads before turning the bus around for writes
system.mem_ctrls1.rdPerTurnAround::total        18938                       # Reads before turning the bus around for writes
system.mem_ctrls1.wrPerTurnAround::samples        18938                       # Writes before turning the bus around for reads
system.mem_ctrls1.wrPerTurnAround::mean      6.468793                       # Writes before turning the bus around for reads
system.mem_ctrls1.wrPerTurnAround::gmean     6.045446                       # Writes before turning the bus around for reads
system.mem_ctrls1.wrPerTurnAround::stdev     2.852614                       # Writes before turning the bus around for reads
system.mem_ctrls1.wrPerTurnAround::4-7          14926     78.82%     78.82% # Writes before turning the bus around for reads
system.mem_ctrls1.wrPerTurnAround::8-11          2433     12.85%     91.66% # Writes before turning the bus around for reads
system.mem_ctrls1.wrPerTurnAround::12-15          873      4.61%     96.27% # Writes before turning the bus around for reads
system.mem_ctrls1.wrPerTurnAround::16-19          706      3.73%    100.00% # Writes before turning the bus around for reads
system.mem_ctrls1.wrPerTurnAround::total        18938                       # Writes before turning the bus around for reads
system.mem_ctrls1.totQLat                 12856476536                       # Total ticks spent queuing
system.mem_ctrls1.totMemAccLat            16489626536                       # Total ticks spent from burst creation until serviced by the DRAM
system.mem_ctrls1.totBusLat                 968840000                       # Total ticks spent in databus transfers
system.mem_ctrls1.avgQLat                    66349.84                       # Average queueing delay per DRAM burst
system.mem_ctrls1.avgBusLat                   5000.00                       # Average bus latency per DRAM burst
system.mem_ctrls1.avgMemAccLat               85099.84                       # Average memory access latency per DRAM burst
system.mem_ctrls1.avgRdBW                      216.86                       # Average DRAM read bandwidth in MiByte/s
system.mem_ctrls1.avgWrBW                      137.11                       # Average achieved write bandwidth in MiByte/s
system.mem_ctrls1.avgRdBWSys                   216.90                       # Average system read bandwidth in MiByte/s
system.mem_ctrls1.avgWrBWSys                   137.11                       # Average system write bandwidth in MiByte/s
system.mem_ctrls1.peakBW                     12800.00                       # Theoretical peak bandwidth in MiByte/s
system.mem_ctrls1.busUtil                        2.77                       # Data bus utilization in percentage
system.mem_ctrls1.busUtilRead                    1.69                       # Data bus utilization in percentage for reads
system.mem_ctrls1.busUtilWrite                   1.07                       # Data bus utilization in percentage for writes
system.mem_ctrls1.avgRdQLen                      1.27                       # Average read queue length when enqueuing
system.mem_ctrls1.avgWrQLen                      2.96                       # Average write queue length when enqueuing
system.mem_ctrls1.readRowHits                  154956                       # Number of row buffer hits during reads
system.mem_ctrls1.writeRowHits                  88372                       # Number of row buffer hits during writes
system.mem_ctrls1.readRowHitRate                79.97                       # Row buffer hit rate for reads
system.mem_ctrls1.writeRowHitRate               72.13                       # Row buffer hit rate for writes
system.mem_ctrls1.avgGap                    180782.49                       # Average gap between requests
system.mem_ctrls1.pageHitRate                   76.93                       # Row buffer hit rate, read and write combined
system.mem_ctrls1.memoryStateTime::IDLE   11894826250                       # Time in different power states
system.mem_ctrls1.memoryStateTime::REF     1909440000                       # Time in different power states
system.mem_ctrls1.memoryStateTime::PRE_PDN            0                       # Time in different power states
system.mem_ctrls1.memoryStateTime::ACT    43378429750                       # Time in different power states
system.mem_ctrls1.memoryStateTime::ACT_PDN            0                       # Time in different power states
system.mem_ctrls1.actEnergy::0              278964000                       # Energy for activate commands per rank (pJ)
system.mem_ctrls1.actEnergy::1              272477520                       # Energy for activate commands per rank (pJ)
system.mem_ctrls1.preEnergy::0              152212500                       # Energy for precharge commands per rank (pJ)
system.mem_ctrls1.preEnergy::1              148673250                       # Energy for precharge commands per rank (pJ)
system.mem_ctrls1.readEnergy::0             754408200                       # Energy for read commands per rank (pJ)
system.mem_ctrls1.readEnergy::1             756919800                       # Energy for read commands per rank (pJ)
system.mem_ctrls1.writeEnergy::0            397509120                       # Energy for write commands per rank (pJ)
system.mem_ctrls1.writeEnergy::1            396329760                       # Energy for write commands per rank (pJ)
system.mem_ctrls1.refreshEnergy::0         3734864640                       # Energy for refresh commands per rank (pJ)
system.mem_ctrls1.refreshEnergy::1         3734864640                       # Energy for refresh commands per rank (pJ)
system.mem_ctrls1.actBackEnergy::0        22390346700                       # Energy for active background per rank (pJ)
system.mem_ctrls1.actBackEnergy::1        21834563355                       # Energy for active background per rank (pJ)
system.mem_ctrls1.preBackEnergy::0        14668858500                       # Energy for precharge background per rank (pJ)
system.mem_ctrls1.preBackEnergy::1        15156387750                       # Energy for precharge background per rank (pJ)
system.mem_ctrls1.totalEnergy::0          42377163660                       # Total energy per rank (pJ)
system.mem_ctrls1.totalEnergy::1          42300216075                       # Total energy per rank (pJ)
system.mem_ctrls1.averagePower::0          741.085944                       # Core power per rank (mW)
system.mem_ctrls1.averagePower::1          739.740295                       # Core power per rank (mW)
system.mem_ctrls2.bytes_read::ruby.dir_cntrl2     12403200                       # Number of bytes read from this memory
system.mem_ctrls2.bytes_read::total          12403200                       # Number of bytes read from this memory
system.mem_ctrls2.bytes_written::ruby.dir_cntrl2      7840448                       # Number of bytes written to this memory
system.mem_ctrls2.bytes_written::total        7840448                       # Number of bytes written to this memory
system.mem_ctrls2.num_reads::ruby.dir_cntrl2       193800                       # Number of read requests responded to by this memory
system.mem_ctrls2.num_reads::total             193800                       # Number of read requests responded to by this memory
system.mem_ctrls2.num_writes::ruby.dir_cntrl2       122507                       # Number of write requests responded to by this memory
system.mem_ctrls2.num_writes::total            122507                       # Number of write requests responded to by this memory
system.mem_ctrls2.bw_read::ruby.dir_cntrl2    216900230                       # Total read bandwidth from this memory (bytes/s)
system.mem_ctrls2.bw_read::total            216900230                       # Total read bandwidth from this memory (bytes/s)
system.mem_ctrls2.bw_write::ruby.dir_cntrl2    137109373                       # Write bandwidth from this memory (bytes/s)
system.mem_ctrls2.bw_write::total           137109373                       # Write bandwidth from this memory (bytes/s)
system.mem_ctrls2.bw_total::ruby.dir_cntrl2    354009604                       # Total bandwidth to/from this memory (bytes/s)
system.mem_ctrls2.bw_total::total           354009604                       # Total bandwidth to/from this memory (bytes/s)
system.mem_ctrls2.readReqs                     193800                       # Number of read requests accepted
system.mem_ctrls2.writeReqs                    122507                       # Number of write requests accepted
system.mem_ctrls2.readBursts                   193800                       # Number of DRAM read bursts, including those serviced by the write queue
system.mem_ctrls2.writeBursts                  122507                       # Number of DRAM write bursts, including those merged in the write queue
system.mem_ctrls2.bytesReadDRAM              12401600                       # Total number of bytes read from DRAM
system.mem_ctrls2.bytesReadWrQ                   1600                       # Total number of bytes read from write queue
system.mem_ctrls2.bytesWritten                7840256                       # Total number of bytes written to DRAM
system.mem_ctrls2.bytesReadSys               12403200                       # Total read bytes from the system interface side
system.mem_ctrls2.bytesWrittenSys             7840448                       # Total written bytes from the system interface side
system.mem_ctrls2.servicedByWrQ                    25                       # Number of DRAM read bursts serviced by the write queue
system.mem_ctrls2.mergedWrBursts                    0                       # Number of DRAM write bursts merged with an existing one
system.mem_ctrls2.neitherReadNorWriteReqs            0                       # Number of requests that are neither read nor write
system.mem_ctrls2.perBankRdBursts::0            11865                       # Per bank write bursts
system.mem_ctrls2.perBankRdBursts::1            12030                       # Per bank write bursts
system.mem_ctrls2.perBankRdBursts::2            11851                       # Per bank write bursts
system.mem_ctrls2.perBankRdBursts::3            12234                       # Per bank write bursts
system.mem_ctrls2.perBankRdBursts::4            12037                       # Per bank write bursts
system.mem_ctrls2.perBankRdBursts::5            12108                       # Per bank write bursts
system.mem_ctrls2.perBankRdBursts::6            12230                       # Per bank write bursts
system.mem_ctrls2.perBankRdBursts::7            12418                       # Per bank write bursts
system.mem_ctrls2.perBankRdBursts::8            12168                       # Per bank write bursts
system.mem_ctrls2.perBankRdBursts::9            12525                       # Per bank write bursts
system.mem_ctrls2.perBankRdBursts::10           12223                       # Per bank write bursts
system.mem_ctrls2.perBankRdBursts::11           12546                       # Per bank write bursts
system.mem_ctrls2.perBankRdBursts::12           12070                       # Per bank write bursts
system.mem_ctrls2.perBankRdBursts::13           11795                       # Per bank write bursts
system.mem_ctrls2.perBankRdBursts::14           11965                       # Per bank write bursts
system.mem_ctrls2.perBankRdBursts::15           11710                       # Per bank write bursts
system.mem_ctrls2.perBankWrBursts::0             7594                       # Per bank write bursts
system.mem_ctrls2.perBankWrBursts::1             7468                       # Per bank write bursts
system.mem_ctrls2.perBankWrBursts::2             7616                       # Per bank write bursts
system.mem_ctrls2.perBankWrBursts::3             7695                       # Per bank write bursts
system.mem_ctrls2.perBankWrBursts::4             7631                       # Per bank write bursts
system.mem_ctrls2.perBankWrBursts::5             7683                       # Per bank write bursts
system.mem_ctrls2.perBankWrBursts::6             7781                       # Per bank write bursts
system.mem_ctrls2.perBankWrBursts::7             7857                       # Per bank write bursts
system.mem_ctrls2.perBankWrBursts::8             7716                       # Per bank write bursts
system.mem_ctrls2.perBankWrBursts::9             7885                       # Per bank write bursts
system.mem_ctrls2.perBankWrBursts::10            7690                       # Per bank write bursts
system.mem_ctrls2.perBankWrBursts::11            7702                       # Per bank write bursts
system.mem_ctrls2.perBankWrBursts::12            7561                       # Per bank write bursts
system.mem_ctrls2.perBankWrBursts::13            7593                       # Per bank write bursts
system.mem_ctrls2.perBankWrBursts::14            7601                       # Per bank write bursts
system.mem_ctrls2.perBankWrBursts::15            7431                       # Per bank write bursts
system.mem_ctrls2.numRdRetry                      294                       # Number of times read queue was full causing retry
system.mem_ctrls2.numWrRetry                     2979                       # Number of times write queue was full causing retry
system.mem_ctrls2.totGap                  57183753000                       # Total gap between requests
system.mem_ctrls2.readPktSize::0                    0                       # Read request sizes (log2)
system.mem_ctrls2.readPktSize::1                    0                       # Read request sizes (log2)
system.mem_ctrls2.readPktSize::2                    0                       # Read request sizes (log2)
system.mem_ctrls2.readPktSize::3                    0                       # Read request sizes (log2)
system.mem_ctrls2.readPktSize::4                    0                       # Read request sizes (log2)
system.mem_ctrls2.readPktSize::5                    0                       # Read request sizes (log2)
system.mem_ctrls2.readPktSize::6               193800                       # Read request sizes (log2)
system.mem_ctrls2.writePktSize::0                   0                       # Write request sizes (log2)
system.mem_ctrls2.writePktSize::1                   0                       # Write request sizes (log2)
system.mem_ctrls2.writePktSize::2                   0                       # Write request sizes (log2)
system.mem_ctrls2.writePktSize::3                   0                       # Write request sizes (log2)
system.mem_ctrls2.writePktSize::4                   0                       # Write request sizes (log2)
system.mem_ctrls2.writePktSize::5                   0                       # Write request sizes (log2)
system.mem_ctrls2.writePktSize::6              122507                       # Write request sizes (log2)
system.mem_ctrls2.rdQLenPdf::0                  72835                       # What read queue length does an incoming req see
system.mem_ctrls2.rdQLenPdf::1                   8567                       # What read queue length does an incoming req see
system.mem_ctrls2.rdQLenPdf::2                   8694                       # What read queue length does an incoming req see
system.mem_ctrls2.rdQLenPdf::3                   8704                       # What read queue length does an incoming req see
system.mem_ctrls2.rdQLenPdf::4                   8809                       # What read queue length does an incoming req see
system.mem_ctrls2.rdQLenPdf::5                   8828                       # What read queue length does an incoming req see
system.mem_ctrls2.rdQLenPdf::6                   8423                       # What read queue length does an incoming req see
system.mem_ctrls2.rdQLenPdf::7                   8138                       # What read queue length does an incoming req see
system.mem_ctrls2.rdQLenPdf::8                   7507                       # What read queue length does an incoming req see
system.mem_ctrls2.rdQLenPdf::9                   6904                       # What read queue length does an incoming req see
system.mem_ctrls2.rdQLenPdf::10                  6293                       # What read queue length does an incoming req see
system.mem_ctrls2.rdQLenPdf::11                  5666                       # What read queue length does an incoming req see
system.mem_ctrls2.rdQLenPdf::12                  4915                       # What read queue length does an incoming req see
system.mem_ctrls2.rdQLenPdf::13                  4245                       # What read queue length does an incoming req see
system.mem_ctrls2.rdQLenPdf::14                  3793                       # What read queue length does an incoming req see
system.mem_ctrls2.rdQLenPdf::15                  3301                       # What read queue length does an incoming req see
system.mem_ctrls2.rdQLenPdf::16                  2869                       # What read queue length does an incoming req see
system.mem_ctrls2.rdQLenPdf::17                  2496                       # What read queue length does an incoming req see
system.mem_ctrls2.rdQLenPdf::18                  2199                       # What read queue length does an incoming req see
system.mem_ctrls2.rdQLenPdf::19                  1916                       # What read queue length does an incoming req see
system.mem_ctrls2.rdQLenPdf::20                  1579                       # What read queue length does an incoming req see
system.mem_ctrls2.rdQLenPdf::21                  1365                       # What read queue length does an incoming req see
system.mem_ctrls2.rdQLenPdf::22                  1112                       # What read queue length does an incoming req see
system.mem_ctrls2.rdQLenPdf::23                   938                       # What read queue length does an incoming req see
system.mem_ctrls2.rdQLenPdf::24                   795                       # What read queue length does an incoming req see
system.mem_ctrls2.rdQLenPdf::25                   675                       # What read queue length does an incoming req see
system.mem_ctrls2.rdQLenPdf::26                   529                       # What read queue length does an incoming req see
system.mem_ctrls2.rdQLenPdf::27                   420                       # What read queue length does an incoming req see
system.mem_ctrls2.rdQLenPdf::28                   352                       # What read queue length does an incoming req see
system.mem_ctrls2.rdQLenPdf::29                   261                       # What read queue length does an incoming req see
system.mem_ctrls2.rdQLenPdf::30                   205                       # What read queue length does an incoming req see
system.mem_ctrls2.rdQLenPdf::31                   442                       # What read queue length does an incoming req see
system.mem_ctrls2.wrQLenPdf::0                  18328                       # What write queue length does an incoming req see
system.mem_ctrls2.wrQLenPdf::1                  20881                       # What write queue length does an incoming req see
system.mem_ctrls2.wrQLenPdf::2                  21819                       # What write queue length does an incoming req see
system.mem_ctrls2.wrQLenPdf::3                  22012                       # What write queue length does an incoming req see
system.mem_ctrls2.wrQLenPdf::4                  21908                       # What write queue length does an incoming req see
system.mem_ctrls2.wrQLenPdf::5                   6224                       # What write queue length does an incoming req see
system.mem_ctrls2.wrQLenPdf::6                   5457                       # What write queue length does an incoming req see
system.mem_ctrls2.wrQLenPdf::7                   5878                       # What write queue length does an incoming req see
system.mem_ctrls2.bytesPerActivate::samples        72935                       # Bytes accessed per row activation
system.mem_ctrls2.bytesPerActivate::mean   277.526674                       # Bytes accessed per row activation
system.mem_ctrls2.bytesPerActivate::gmean   197.154895                       # Bytes accessed per row activation
system.mem_ctrls2.bytesPerActivate::stdev   246.036917                       # Bytes accessed per row activation
system.mem_ctrls2.bytesPerActivate::0-127        17962     24.63%     24.63% # Bytes accessed per row activation
system.mem_ctrls2.bytesPerActivate::128-255        19770     27.11%     51.73% # Bytes accessed per row activation
system.mem_ctrls2.bytesPerActivate::256-383        20750     28.45%     80.18% # Bytes accessed per row activation
system.mem_ctrls2.bytesPerActivate::384-511         4223      5.79%     85.97% # Bytes accessed per row activation
system.mem_ctrls2.bytesPerActivate::512-639         2905      3.98%     89.96% # Bytes accessed per row activation
system.mem_ctrls2.bytesPerActivate::640-767         1604      2.20%     92.16% # Bytes accessed per row activation
system.mem_ctrls2.bytesPerActivate::768-895         1192      1.63%     93.79% # Bytes accessed per row activation
system.mem_ctrls2.bytesPerActivate::896-1023          851      1.17%     94.96% # Bytes accessed per row activation
system.mem_ctrls2.bytesPerActivate::1024-1151         3678      5.04%    100.00% # Bytes accessed per row activation
system.mem_ctrls2.bytesPerActivate::total        72935                       # Bytes accessed per row activation
system.mem_ctrls2.rdPerTurnAround::samples        18930                       # Reads before turning the bus around for writes
system.mem_ctrls2.rdPerTurnAround::mean     10.235975                       # Reads before turning the bus around for writes
system.mem_ctrls2.rdPerTurnAround::stdev    25.095171                       # Reads before turning the bus around for writes
system.mem_ctrls2.rdPerTurnAround::0-127        18923     99.96%     99.96% # Reads before turning the bus around for writes
system.mem_ctrls2.rdPerTurnAround::128-255            5      0.03%     99.99% # Reads before turning the bus around for writes
system.mem_ctrls2.rdPerTurnAround::1152-1279            1      0.01%     99.99% # Reads before turning the bus around for writes
system.mem_ctrls2.rdPerTurnAround::2816-2943            1      0.01%    100.00% # Reads before turning the bus around for writes
system.mem_ctrls2.rdPerTurnAround::total        18930                       # Reads before turning the bus around for writes
system.mem_ctrls2.wrPerTurnAround::samples        18930                       # Writes before turning the bus around for reads
system.mem_ctrls2.wrPerTurnAround::mean      6.471421                       # Writes before turning the bus around for reads
system.mem_ctrls2.wrPerTurnAround::gmean     6.045496                       # Writes before turning the bus around for reads
system.mem_ctrls2.wrPerTurnAround::stdev     2.864074                       # Writes before turning the bus around for reads
system.mem_ctrls2.wrPerTurnAround::4-7          14916     78.80%     78.80% # Writes before turning the bus around for reads
system.mem_ctrls2.wrPerTurnAround::8-11          2414     12.75%     91.55% # Writes before turning the bus around for reads
system.mem_ctrls2.wrPerTurnAround::12-15          881      4.65%     96.20% # Writes before turning the bus around for reads
system.mem_ctrls2.wrPerTurnAround::16-19          719      3.80%    100.00% # Writes before turning the bus around for reads
system.mem_ctrls2.wrPerTurnAround::total        18930                       # Writes before turning the bus around for reads
system.mem_ctrls2.totQLat                 12774518833                       # Total ticks spent queuing
system.mem_ctrls2.totMemAccLat            16407800083                       # Total ticks spent from burst creation until serviced by the DRAM
system.mem_ctrls2.totBusLat                 968875000                       # Total ticks spent in databus transfers
system.mem_ctrls2.avgQLat                    65924.49                       # Average queueing delay per DRAM burst
system.mem_ctrls2.avgBusLat                   5000.00                       # Average bus latency per DRAM burst
system.mem_ctrls2.avgMemAccLat               84674.49                       # Average memory access latency per DRAM burst
system.mem_ctrls2.avgRdBW                      216.87                       # Average DRAM read bandwidth in MiByte/s
system.mem_ctrls2.avgWrBW                      137.11                       # Average achieved write bandwidth in MiByte/s
system.mem_ctrls2.avgRdBWSys                   216.90                       # Average system read bandwidth in MiByte/s
system.mem_ctrls2.avgWrBWSys                   137.11                       # Average system write bandwidth in MiByte/s
system.mem_ctrls2.peakBW                     12800.00                       # Theoretical peak bandwidth in MiByte/s
system.mem_ctrls2.busUtil                        2.77                       # Data bus utilization in percentage
system.mem_ctrls2.busUtilRead                    1.69                       # Data bus utilization in percentage for reads
system.mem_ctrls2.busUtilWrite                   1.07                       # Data bus utilization in percentage for writes
system.mem_ctrls2.avgRdQLen                      1.26                       # Average read queue length when enqueuing
system.mem_ctrls2.avgWrQLen                      2.91                       # Average write queue length when enqueuing
system.mem_ctrls2.readRowHits                  154773                       # Number of row buffer hits during reads
system.mem_ctrls2.writeRowHits                  88567                       # Number of row buffer hits during writes
system.mem_ctrls2.readRowHitRate                79.87                       # Row buffer hit rate for reads
system.mem_ctrls2.writeRowHitRate               72.30                       # Row buffer hit rate for writes
system.mem_ctrls2.avgGap                    180785.61                       # Average gap between requests
system.mem_ctrls2.pageHitRate                   76.94                       # Row buffer hit rate, read and write combined
system.mem_ctrls2.memoryStateTime::IDLE   11877737250                       # Time in different power states
system.mem_ctrls2.memoryStateTime::REF     1909440000                       # Time in different power states
system.mem_ctrls2.memoryStateTime::PRE_PDN            0                       # Time in different power states
system.mem_ctrls2.memoryStateTime::ACT    43395316500                       # Time in different power states
system.mem_ctrls2.memoryStateTime::ACT_PDN            0                       # Time in different power states
system.mem_ctrls2.actEnergy::0              278321400                       # Energy for activate commands per rank (pJ)
system.mem_ctrls2.actEnergy::1              273059640                       # Energy for activate commands per rank (pJ)
system.mem_ctrls2.preEnergy::0              151861875                       # Energy for precharge commands per rank (pJ)
system.mem_ctrls2.preEnergy::1              148990875                       # Energy for precharge commands per rank (pJ)
system.mem_ctrls2.readEnergy::0             754798200                       # Energy for read commands per rank (pJ)
system.mem_ctrls2.readEnergy::1             756584400                       # Energy for read commands per rank (pJ)
system.mem_ctrls2.writeEnergy::0            397386000                       # Energy for write commands per rank (pJ)
system.mem_ctrls2.writeEnergy::1            396439920                       # Energy for write commands per rank (pJ)
system.mem_ctrls2.refreshEnergy::0         3734864640                       # Energy for refresh commands per rank (pJ)
system.mem_ctrls2.refreshEnergy::1         3734864640                       # Energy for refresh commands per rank (pJ)
system.mem_ctrls2.actBackEnergy::0        22144910400                       # Energy for active background per rank (pJ)
system.mem_ctrls2.actBackEnergy::1        21641135850                       # Energy for active background per rank (pJ)
system.mem_ctrls2.preBackEnergy::0        14884128000                       # Energy for precharge background per rank (pJ)
system.mem_ctrls2.preBackEnergy::1        15326035500                       # Energy for precharge background per rank (pJ)
system.mem_ctrls2.totalEnergy::0          42346270515                       # Total energy per rank (pJ)
system.mem_ctrls2.totalEnergy::1          42277110825                       # Total energy per rank (pJ)
system.mem_ctrls2.averagePower::0          740.546239                       # Core power per rank (mW)
system.mem_ctrls2.averagePower::1          739.336783                       # Core power per rank (mW)
system.mem_ctrls3.bytes_read::ruby.dir_cntrl3     12382080                       # Number of bytes read from this memory
system.mem_ctrls3.bytes_read::total          12382080                       # Number of bytes read from this memory
system.mem_ctrls3.bytes_written::ruby.dir_cntrl3      7838592                       # Number of bytes written to this memory
system.mem_ctrls3.bytes_written::total        7838592                       # Number of bytes written to this memory
system.mem_ctrls3.num_reads::ruby.dir_cntrl3       193470                       # Number of read requests responded to by this memory
system.mem_ctrls3.num_reads::total             193470                       # Number of read requests responded to by this memory
system.mem_ctrls3.num_writes::ruby.dir_cntrl3       122478                       # Number of write requests responded to by this memory
system.mem_ctrls3.num_writes::total            122478                       # Number of write requests responded to by this memory
system.mem_ctrls3.bw_read::ruby.dir_cntrl3    216530896                       # Total read bandwidth from this memory (bytes/s)
system.mem_ctrls3.bw_read::total            216530896                       # Total read bandwidth from this memory (bytes/s)
system.mem_ctrls3.bw_write::ruby.dir_cntrl3    137076916                       # Write bandwidth from this memory (bytes/s)
system.mem_ctrls3.bw_write::total           137076916                       # Write bandwidth from this memory (bytes/s)
system.mem_ctrls3.bw_total::ruby.dir_cntrl3    353607812                       # Total bandwidth to/from this memory (bytes/s)
system.mem_ctrls3.bw_total::total           353607812                       # Total bandwidth to/from this memory (bytes/s)
system.mem_ctrls3.readReqs                     193470                       # Number of read requests accepted
system.mem_ctrls3.writeReqs                    122478                       # Number of write requests accepted
system.mem_ctrls3.readBursts                   193470                       # Number of DRAM read bursts, including those serviced by the write queue
system.mem_ctrls3.writeBursts                  122478                       # Number of DRAM write bursts, including those merged in the write queue
system.mem_ctrls3.bytesReadDRAM              12380864                       # Total number of bytes read from DRAM
system.mem_ctrls3.bytesReadWrQ                   1216                       # Total number of bytes read from write queue
system.mem_ctrls3.bytesWritten                7838336                       # Total number of bytes written to DRAM
system.mem_ctrls3.bytesReadSys               12382080                       # Total read bytes from the system interface side
system.mem_ctrls3.bytesWrittenSys             7838592                       # Total written bytes from the system interface side
system.mem_ctrls3.servicedByWrQ                    19                       # Number of DRAM read bursts serviced by the write queue
system.mem_ctrls3.mergedWrBursts                    0                       # Number of DRAM write bursts merged with an existing one
system.mem_ctrls3.neitherReadNorWriteReqs            0                       # Number of requests that are neither read nor write
system.mem_ctrls3.perBankRdBursts::0            11855                       # Per bank write bursts
system.mem_ctrls3.perBankRdBursts::1            11986                       # Per bank write bursts
system.mem_ctrls3.perBankRdBursts::2            11791                       # Per bank write bursts
system.mem_ctrls3.perBankRdBursts::3            12189                       # Per bank write bursts
system.mem_ctrls3.perBankRdBursts::4            11982                       # Per bank write bursts
system.mem_ctrls3.perBankRdBursts::5            12086                       # Per bank write bursts
system.mem_ctrls3.perBankRdBursts::6            12206                       # Per bank write bursts
system.mem_ctrls3.perBankRdBursts::7            12408                       # Per bank write bursts
system.mem_ctrls3.perBankRdBursts::8            12170                       # Per bank write bursts
system.mem_ctrls3.perBankRdBursts::9            12520                       # Per bank write bursts
system.mem_ctrls3.perBankRdBursts::10           12245                       # Per bank write bursts
system.mem_ctrls3.perBankRdBursts::11           12479                       # Per bank write bursts
system.mem_ctrls3.perBankRdBursts::12           12058                       # Per bank write bursts
system.mem_ctrls3.perBankRdBursts::13           11790                       # Per bank write bursts
system.mem_ctrls3.perBankRdBursts::14           11982                       # Per bank write bursts
system.mem_ctrls3.perBankRdBursts::15           11704                       # Per bank write bursts
system.mem_ctrls3.perBankWrBursts::0             7600                       # Per bank write bursts
system.mem_ctrls3.perBankWrBursts::1             7456                       # Per bank write bursts
system.mem_ctrls3.perBankWrBursts::2             7614                       # Per bank write bursts
system.mem_ctrls3.perBankWrBursts::3             7683                       # Per bank write bursts
system.mem_ctrls3.perBankWrBursts::4             7624                       # Per bank write bursts
system.mem_ctrls3.perBankWrBursts::5             7684                       # Per bank write bursts
system.mem_ctrls3.perBankWrBursts::6             7782                       # Per bank write bursts
system.mem_ctrls3.perBankWrBursts::7             7851                       # Per bank write bursts
system.mem_ctrls3.perBankWrBursts::8             7716                       # Per bank write bursts
system.mem_ctrls3.perBankWrBursts::9             7886                       # Per bank write bursts
system.mem_ctrls3.perBankWrBursts::10            7693                       # Per bank write bursts
system.mem_ctrls3.perBankWrBursts::11            7710                       # Per bank write bursts
system.mem_ctrls3.perBankWrBursts::12            7557                       # Per bank write bursts
system.mem_ctrls3.perBankWrBursts::13            7600                       # Per bank write bursts
system.mem_ctrls3.perBankWrBursts::14            7595                       # Per bank write bursts
system.mem_ctrls3.perBankWrBursts::15            7423                       # Per bank write bursts
system.mem_ctrls3.numRdRetry                      240                       # Number of times read queue was full causing retry
system.mem_ctrls3.numWrRetry                     3017                       # Number of times write queue was full causing retry
system.mem_ctrls3.totGap                  57182853500                       # Total gap between requests
system.mem_ctrls3.readPktSize::0                    0                       # Read request sizes (log2)
system.mem_ctrls3.readPktSize::1                    0                       # Read request sizes (log2)
system.mem_ctrls3.readPktSize::2                    0                       # Read request sizes (log2)
system.mem_ctrls3.readPktSize::3                    0                       # Read request sizes (log2)
system.mem_ctrls3.readPktSize::4                    0                       # Read request sizes (log2)
system.mem_ctrls3.readPktSize::5                    0                       # Read request sizes (log2)
system.mem_ctrls3.readPktSize::6               193470                       # Read request sizes (log2)
system.mem_ctrls3.writePktSize::0                   0                       # Write request sizes (log2)
system.mem_ctrls3.writePktSize::1                   0                       # Write request sizes (log2)
system.mem_ctrls3.writePktSize::2                   0                       # Write request sizes (log2)
system.mem_ctrls3.writePktSize::3                   0                       # Write request sizes (log2)
system.mem_ctrls3.writePktSize::4                   0                       # Write request sizes (log2)
system.mem_ctrls3.writePktSize::5                   0                       # Write request sizes (log2)
system.mem_ctrls3.writePktSize::6              122478                       # Write request sizes (log2)
system.mem_ctrls3.rdQLenPdf::0                  72469                       # What read queue length does an incoming req see
system.mem_ctrls3.rdQLenPdf::1                   8813                       # What read queue length does an incoming req see
system.mem_ctrls3.rdQLenPdf::2                   8918                       # What read queue length does an incoming req see
system.mem_ctrls3.rdQLenPdf::3                   8871                       # What read queue length does an incoming req see
system.mem_ctrls3.rdQLenPdf::4                   8839                       # What read queue length does an incoming req see
system.mem_ctrls3.rdQLenPdf::5                   8661                       # What read queue length does an incoming req see
system.mem_ctrls3.rdQLenPdf::6                   8527                       # What read queue length does an incoming req see
system.mem_ctrls3.rdQLenPdf::7                   8086                       # What read queue length does an incoming req see
system.mem_ctrls3.rdQLenPdf::8                   7633                       # What read queue length does an incoming req see
system.mem_ctrls3.rdQLenPdf::9                   6914                       # What read queue length does an incoming req see
system.mem_ctrls3.rdQLenPdf::10                  6334                       # What read queue length does an incoming req see
system.mem_ctrls3.rdQLenPdf::11                  5508                       # What read queue length does an incoming req see
system.mem_ctrls3.rdQLenPdf::12                  4985                       # What read queue length does an incoming req see
system.mem_ctrls3.rdQLenPdf::13                  4370                       # What read queue length does an incoming req see
system.mem_ctrls3.rdQLenPdf::14                  3861                       # What read queue length does an incoming req see
system.mem_ctrls3.rdQLenPdf::15                  3330                       # What read queue length does an incoming req see
system.mem_ctrls3.rdQLenPdf::16                  2825                       # What read queue length does an incoming req see
system.mem_ctrls3.rdQLenPdf::17                  2449                       # What read queue length does an incoming req see
system.mem_ctrls3.rdQLenPdf::18                  2092                       # What read queue length does an incoming req see
system.mem_ctrls3.rdQLenPdf::19                  1765                       # What read queue length does an incoming req see
system.mem_ctrls3.rdQLenPdf::20                  1526                       # What read queue length does an incoming req see
system.mem_ctrls3.rdQLenPdf::21                  1317                       # What read queue length does an incoming req see
system.mem_ctrls3.rdQLenPdf::22                  1124                       # What read queue length does an incoming req see
system.mem_ctrls3.rdQLenPdf::23                   906                       # What read queue length does an incoming req see
system.mem_ctrls3.rdQLenPdf::24                   735                       # What read queue length does an incoming req see
[...]
system.ruby.L2Cache_Controller.IS.Mem_Data::total        13512                      
system.ruby.L2Cache_Controller.IM.L1_GETX |           2    100.00%    100.00% |           0      0.00%    100.00% |           0      0.00%    100.00% |           0      0.00%    100.00% |           0      0.00%    100.00% |           0      0.00%    100.00% |           0      0.00%    100.00% |           0      0.00%    100.00% |           0      0.00%    100.00% |           0      0.00%    100.00% |           0      0.00%    100.00% |           0      0.00%    100.00% |           0      0.00%    100.00% |           0      0.00%    100.00% |           0      0.00%    100.00% |           0      0.00%    100.00% |           0      0.00%    100.00% |           0      0.00%    100.00% |           0      0.00%    100.00% |           0      0.00%    100.00% |           0      0.00%    100.00% |           0      0.00%    100.00% |           0      0.00%    100.00% |           0      0.00%    100.00% |           0      0.00%    100.00% |           0      0.00%    100.00% |           0      0.00%    100.00% |           0      0.00%    100.00% |           0      0.00%    100.00% |           0      0.00%    100.00% |           0      0.00%    100.00% |           0      0.00%    100.00%
system.ruby.L2Cache_Controller.IM.L1_GETX::total            2                      
system.ruby.L2Cache_Controller.IM.Mem_Data |       14970      3.14%      3.14% |       14887      3.12%      6.26% |       14893      3.12%      9.39% |       14893      3.12%     12.51% |       14885      3.12%     15.63% |       14893      3.12%     18.76% |       14896      3.12%     21.88% |       14889      3.12%     25.00% |       14897      3.12%     28.13% |       14902      3.13%     31.25% |       14883      3.12%     34.38% |       14903      3.13%     37.50% |       14894      3.12%     40.63% |       14895      3.12%     43.75% |       14891      3.12%     46.87% |       14887      3.12%     50.00% |       14907      3.13%     53.12% |       14900      3.13%     56.25% |       14899      3.13%     59.37% |       14902      3.13%     62.50% |       14916      3.13%     65.63% |       14924      3.13%     68.76% |       14888      3.12%     71.88% |       14899      3.13%     75.00% |       14910      3.13%     78.13% |       14901      3.13%     81.26% |       14905      3.13%     84.38% |       14895      3.12%     87.51% |       14889      3.12%     90.63% |       14886      3.12%     93.75% |       14897      3.12%     96.88% |       14883      3.12%    100.00%
system.ruby.L2Cache_Controller.IM.Mem_Data::total       476759                      
system.ruby.L2Cache_Controller.SS_MB.Exclusive_Unblock |           3      6.12%      6.12% |           6     12.24%     18.37% |           2      4.08%     22.45% |           3      6.12%     28.57% |           0      0.00%     28.57% |           0      0.00%     28.57% |           0      0.00%     28.57% |           0      0.00%     28.57% |           1      2.04%     30.61% |           0      0.00%     30.61% |           0      0.00%     30.61% |           1      2.04%     32.65% |           4      8.16%     40.82% |           0      0.00%     40.82% |           2      4.08%     44.90% |           0      0.00%     44.90% |           1      2.04%     46.94% |           2      4.08%     51.02% |          13     26.53%     77.55% |           3      6.12%     83.67% |           0      0.00%     83.67% |           0      0.00%     83.67% |           0      0.00%     83.67% |           0      0.00%     83.67% |           1      2.04%     85.71% |           0      0.00%     85.71% |           3      6.12%     91.84% |           4      8.16%    100.00% |           0      0.00%    100.00% |           0      0.00%    100.00% |           0      0.00%    100.00% |           0      0.00%    100.00%
system.ruby.L2Cache_Controller.SS_MB.Exclusive_Unblock::total           49                      
system.ruby.L2Cache_Controller.MT_MB.L1_PUTX |           1    100.00%    100.00% |           0      0.00%    100.00% |           0      0.00%    100.00% |           0      0.00%    100.00% |           0      0.00%    100.00% |           0      0.00%    100.00% |           0      0.00%    100.00% |           0      0.00%    100.00% |           0      0.00%    100.00% |           0      0.00%    100.00% |           0      0.00%    100.00% |           0      0.00%    100.00% |           0      0.00%    100.00% |           0      0.00%    100.00% |           0      0.00%    100.00% |           0      0.00%    100.00% |           0      0.00%    100.00% |           0      0.00%    100.00% |           0      0.00%    100.00% |           0      0.00%    100.00% |           0      0.00%    100.00% |           0      0.00%    100.00% |           0      0.00%    100.00% |           0      0.00%    100.00% |           0      0.00%    100.00% |           0      0.00%    100.00% |           0      0.00%    100.00% |           0      0.00%    100.00% |           0      0.00%    100.00% |           0      0.00%    100.00% |           0      0.00%    100.00% |           0      0.00%    100.00%
system.ruby.L2Cache_Controller.MT_MB.L1_PUTX::total            1                      
system.ruby.L2Cache_Controller.MT_MB.Exclusive_Unblock |       75882      7.22%      7.22% |       32860      3.13%     10.35% |       29495      2.81%     13.16% |       32386      3.08%     16.24% |       29776      2.83%     19.07% |       29675      2.82%     21.90% |       29075      2.77%     24.66% |       29694      2.83%     27.49% |       30392      2.89%     30.38% |       29990      2.85%     33.24% |       32535      3.10%     36.33% |       30865      2.94%     39.27% |       30494      2.90%     42.17% |       30302      2.88%     45.06% |       29592      2.82%     47.87% |       30191      2.87%     50.74% |       31496      3.00%     53.74% |       30307      2.88%     56.63% |       30896      2.94%     59.57% |       31630      3.01%     62.58% |       32124      3.06%     65.63% |       37023      3.52%     69.16% |       31246      2.97%     72.13% |       31246      2.97%     75.11% |       31231      2.97%     78.08% |       31235      2.97%     81.05% |       31160      2.97%     84.02% |       30870      2.94%     86.95% |       32682      3.11%     90.06% |       32151      3.06%     93.12% |       34121      3.25%     96.37% |       38134      3.63%    100.00%
system.ruby.L2Cache_Controller.MT_MB.Exclusive_Unblock::total      1050756                      
system.ruby.L2Cache_Controller.MT_IIB.L1_PUTX |           1    100.00%    100.00% |           0      0.00%    100.00% |           0      0.00%    100.00% |           0      0.00%    100.00% |           0      0.00%    100.00% |           0      0.00%    100.00% |           0      0.00%    100.00% |           0      0.00%    100.00% |           0      0.00%    100.00% |           0      0.00%    100.00% |           0      0.00%    100.00% |           0      0.00%    100.00% |           0      0.00%    100.00% |           0      0.00%    100.00% |           0      0.00%    100.00% |           0      0.00%    100.00% |           0      0.00%    100.00% |           0      0.00%    100.00% |           0      0.00%    100.00% |           0      0.00%    100.00% |           0      0.00%    100.00% |           0      0.00%    100.00% |           0      0.00%    100.00% |           0      0.00%    100.00% |           0      0.00%    100.00% |           0      0.00%    100.00% |           0      0.00%    100.00% |           0      0.00%    100.00% |           0      0.00%    100.00% |           0      0.00%    100.00% |           0      0.00%    100.00% |           0      0.00%    100.00%
system.ruby.L2Cache_Controller.MT_IIB.L1_PUTX::total            1                      
system.ruby.L2Cache_Controller.MT_IIB.WB_Data |           1      1.28%      1.28% |           2      2.56%      3.85% |           1      1.28%      5.13% |           3      3.85%      8.97% |           3      3.85%     12.82% |           3      3.85%     16.67% |           4      5.13%     21.79% |           3      3.85%     25.64% |           5      6.41%     32.05% |           3      3.85%     35.90% |           2      2.56%     38.46% |           1      1.28%     39.74% |           3      3.85%     43.59% |           2      2.56%     46.15% |           4      5.13%     51.28% |           3      3.85%     55.13% |           3      3.85%     58.97% |           1      1.28%     60.26% |           2      2.56%     62.82% |           0      0.00%     62.82% |           1      1.28%     64.10% |           0      0.00%     64.10% |           1      1.28%     65.38% |           2      2.56%     67.95% |           3      3.85%     71.79% |           5      6.41%     78.21% |           4      5.13%     83.33% |           5      6.41%     89.74% |           2      2.56%     92.31% |           2      2.56%     94.87% |           2      2.56%     97.44% |           2      2.56%    100.00%
system.ruby.L2Cache_Controller.MT_IIB.WB_Data::total           78                      
system.ruby.L2Cache_Controller.MT_IIB.WB_Data_clean |          65     55.56%     55.56% |           0      0.00%     55.56% |           0      0.00%     55.56% |          19     16.24%     71.79% |           0      0.00%     71.79% |           0      0.00%     71.79% |           0      0.00%     71.79% |           0      0.00%     71.79% |           0      0.00%     71.79% |           0      0.00%     71.79% |           0      0.00%     71.79% |           0      0.00%     71.79% |           0      0.00%     71.79% |           0      0.00%     71.79% |           0      0.00%     71.79% |           0      0.00%     71.79% |          14     11.97%     83.76% |           0      0.00%     83.76% |           0      0.00%     83.76% |          17     14.53%     98.29% |           0      0.00%     98.29% |           0      0.00%     98.29% |           0      0.00%     98.29% |           0      0.00%     98.29% |           0      0.00%     98.29% |           0      0.00%     98.29% |           0      0.00%     98.29% |           2      1.71%    100.00% |           0      0.00%    100.00% |           0      0.00%    100.00% |           0      0.00%    100.00% |           0      0.00%    100.00%
system.ruby.L2Cache_Controller.MT_IIB.WB_Data_clean::total          117                      
system.ruby.L2Cache_Controller.MT_IIB.Unblock |           0      0.00%      0.00% |           0      0.00%      0.00% |           0      0.00%      0.00% |           0      0.00%      0.00% |           0      0.00%      0.00% |           0      0.00%      0.00% |           0      0.00%      0.00% |           0      0.00%      0.00% |           0      0.00%      0.00% |           0      0.00%      0.00% |           0      0.00%      0.00% |           1     33.33%     33.33% |           0      0.00%     33.33% |           1     33.33%     66.67% |           0      0.00%     66.67% |           0      0.00%     66.67% |           0      0.00%     66.67% |           0      0.00%     66.67% |           0      0.00%     66.67% |           0      0.00%     66.67% |           0      0.00%     66.67% |           0      0.00%     66.67% |           0      0.00%     66.67% |           0      0.00%     66.67% |           0      0.00%     66.67% |           0      0.00%     66.67% |           0      0.00%     66.67% |           0      0.00%     66.67% |           1     33.33%    100.00% |           0      0.00%    100.00% |           0      0.00%    100.00% |           0      0.00%    100.00%
system.ruby.L2Cache_Controller.MT_IIB.Unblock::total            3                      
system.ruby.L2Cache_Controller.MT_IB.WB_Data |           0      0.00%      0.00% |           0      0.00%      0.00% |           0      0.00%      0.00% |           0      0.00%      0.00% |           0      0.00%      0.00% |           0      0.00%      0.00% |           0      0.00%      0.00% |           0      0.00%      0.00% |           0      0.00%      0.00% |           0      0.00%      0.00% |           0      0.00%      0.00% |           1     33.33%     33.33% |           0      0.00%     33.33% |           1     33.33%     66.67% |           0      0.00%     66.67% |           0      0.00%     66.67% |           0      0.00%     66.67% |           0      0.00%     66.67% |           0      0.00%     66.67% |           0      0.00%     66.67% |           0      0.00%     66.67% |           0      0.00%     66.67% |           0      0.00%     66.67% |           0      0.00%     66.67% |           0      0.00%     66.67% |           0      0.00%     66.67% |           0      0.00%     66.67% |           0      0.00%     66.67% |           1     33.33%    100.00% |           0      0.00%    100.00% |           0      0.00%    100.00% |           0      0.00%    100.00%
system.ruby.L2Cache_Controller.MT_IB.WB_Data::total            3                      
system.ruby.L2Cache_Controller.MT_SB.Unblock |          66     33.85%     33.85% |           2      1.03%     34.87% |           1      0.51%     35.38% |          22     11.28%     46.67% |           3      1.54%     48.21% |           3      1.54%     49.74% |           4      2.05%     51.79% |           3      1.54%     53.33% |           5      2.56%     55.90% |           3      1.54%     57.44% |           2      1.03%     58.46% |           1      0.51%     58.97% |           3      1.54%     60.51% |           2      1.03%     61.54% |           4      2.05%     63.59% |           3      1.54%     65.13% |          17      8.72%     73.85% |           1      0.51%     74.36% |           2      1.03%     75.38% |          17      8.72%     84.10% |           1      0.51%     84.62% |           0      0.00%     84.62% |           1      0.51%     85.13% |           2      1.03%     86.15% |           3      1.54%     87.69% |           5      2.56%     90.26% |           4      2.05%     92.31% |           7      3.59%     95.90% |           2      1.03%     96.92% |           2      1.03%     97.95% |           2      1.03%     98.97% |           2      1.03%    100.00%
system.ruby.L2Cache_Controller.MT_SB.Unblock::total          195                      
system.ruby.SimicsNetworkPortInterface_Controller.MessageSend |       52759     16.55%     16.55% |      159427     50.00%     66.55% |       25977      8.15%     74.69% |       28215      8.85%     83.54% |       25283      7.93%     91.47% |       27193      8.53%    100.00% |           0      0.00%    100.00% |           0      0.00%    100.00% |           0      0.00%    100.00% |           0      0.00%    100.00% |           0      0.00%    100.00% |           0      0.00%    100.00% |           0      0.00%    100.00% |           0      0.00%    100.00% |           0      0.00%    100.00% |           0      0.00%    100.00% |           0      0.00%    100.00% |           0      0.00%    100.00% |           0      0.00%    100.00% |           0      0.00%    100.00% |           0      0.00%    100.00% |           0      0.00%    100.00% |           0      0.00%    100.00% |           0      0.00%    100.00% |           0      0.00%    100.00% |           0      0.00%    100.00% |           0      0.00%    100.00% |           0      0.00%    100.00% |           0      0.00%    100.00% |           0      0.00%    100.00% |           0      0.00%    100.00% |           0      0.00%    100.00%
system.ruby.SimicsNetworkPortInterface_Controller.MessageSend::total       318854                      
system.ruby.SimicsNetworkPortInterface_Controller.MessageRecv |       52759     16.55%     16.55% |      159427     50.00%     66.55% |       25977      8.15%     74.69% |       28215      8.85%     83.54% |       25283      7.93%     91.47% |       27193      8.53%    100.00% |           0      0.00%    100.00% |           0      0.00%    100.00% |           0      0.00%    100.00% |           0      0.00%    100.00% |           0      0.00%    100.00% |           0      0.00%    100.00% |           0      0.00%    100.00% |           0      0.00%    100.00% |           0      0.00%    100.00% |           0      0.00%    100.00% |           0      0.00%    100.00% |           0      0.00%    100.00% |           0      0.00%    100.00% |           0      0.00%    100.00% |           0      0.00%    100.00% |           0      0.00%    100.00% |           0      0.00%    100.00% |           0      0.00%    100.00% |           0      0.00%    100.00% |           0      0.00%    100.00% |           0      0.00%    100.00% |           0      0.00%    100.00% |           0      0.00%    100.00% |           0      0.00%    100.00% |           0      0.00%    100.00% |           0      0.00%    100.00%
system.ruby.SimicsNetworkPortInterface_Controller.MessageRecv::total       318854                      
system.ruby.SimicsNetworkPortInterface_Controller.A.MessageSend |       52759     16.55%     16.55% |      159427     50.00%     66.55% |       25977      8.15%     74.69% |       28215      8.85%     83.54% |       25283      7.93%     91.47% |       27193      8.53%    100.00% |           0      0.00%    100.00% |           0      0.00%    100.00% |           0      0.00%    100.00% |           0      0.00%    100.00% |           0      0.00%    100.00% |           0      0.00%    100.00% |           0      0.00%    100.00% |           0      0.00%    100.00% |           0      0.00%    100.00% |           0      0.00%    100.00% |           0      0.00%    100.00% |           0      0.00%    100.00% |           0      0.00%    100.00% |           0      0.00%    100.00% |           0      0.00%    100.00% |           0      0.00%    100.00% |           0      0.00%    100.00% |           0      0.00%    100.00% |           0      0.00%    100.00% |           0      0.00%    100.00% |           0      0.00%    100.00% |           0      0.00%    100.00% |           0      0.00%    100.00% |           0      0.00%    100.00% |           0      0.00%    100.00% |           0      0.00%    100.00%
system.ruby.SimicsNetworkPortInterface_Controller.A.MessageSend::total       318854                      
system.ruby.SimicsNetworkPortInterface_Controller.A.MessageRecv |       52759     16.55%     16.55% |      159427     50.00%     66.55% |       25977      8.15%     74.69% |       28215      8.85%     83.54% |       25283      7.93%     91.47% |       27193      8.53%    100.00% |           0      0.00%    100.00% |           0      0.00%    100.00% |           0      0.00%    100.00% |           0      0.00%    100.00% |           0      0.00%    100.00% |           0      0.00%    100.00% |           0      0.00%    100.00% |           0      0.00%    100.00% |           0      0.00%    100.00% |           0      0.00%    100.00% |           0      0.00%    100.00% |           0      0.00%    100.00% |           0      0.00%    100.00% |           0      0.00%    100.00% |           0      0.00%    100.00% |           0      0.00%    100.00% |           0      0.00%    100.00% |           0      0.00%    100.00% |           0      0.00%    100.00% |           0      0.00%    100.00% |           0      0.00%    100.00% |           0      0.00%    100.00% |           0      0.00%    100.00% |           0      0.00%    100.00% |           0      0.00%    100.00% |           0      0.00%    100.00%
system.ruby.SimicsNetworkPortInterface_Controller.A.MessageRecv::total       318854                      
system.switch_cpus.kern.inst.arm                    0                       # number of arm instructions executed
system.switch_cpus.kern.inst.quiesce                0                       # number of quiesce instructions executed

---------- End Simulation Statistics   ----------
