
---------- Begin Simulation Statistics ----------
sim_seconds                                  0.059751                       # Number of seconds simulated
sim_ticks                                 59751346500                       # Number of ticks simulated
final_tick                               5235919425000                       # Number of ticks from beginning of simulation (restored from checkpoints and never reset)
sim_freq                                 1000000000000                       # Frequency of simulated ticks
host_inst_rate                                  44190                       # Simulator instruction rate (inst/s)
host_op_rate                                    78618                       # Simulator op (including micro ops) rate (op/s)
host_tick_rate                               66446635                       # Simulator tick rate (ticks/s)
host_mem_usage                                4844252                       # Number of bytes of host memory used
host_seconds                                   899.24                       # Real time elapsed on the host
sim_insts                                    39737441                       # Number of instructions simulated
sim_ops                                      70696627                       # Number of ops (including micro ops) simulated
system.voltage_domain.voltage                       1                       # Voltage in Volts
system.clk_domain.clock                           500                       # Clock period in ticks
system.mem_ctrls0.bytes_read::ruby.dir_cntrl0     14034112                       # Number of bytes read from this memory
system.mem_ctrls0.bytes_read::total          14034112                       # Number of bytes read from this memory
system.mem_ctrls0.bytes_written::ruby.dir_cntrl0      4007552                       # Number of bytes written to this memory
system.mem_ctrls0.bytes_written::total        4007552                       # Number of bytes written to this memory
system.mem_ctrls0.num_reads::ruby.dir_cntrl0       219283                       # Number of read requests responded to by this memory
system.mem_ctrls0.num_reads::total             219283                       # Number of read requests responded to by this memory
system.mem_ctrls0.num_writes::ruby.dir_cntrl0        62618                       # Number of write requests responded to by this memory
system.mem_ctrls0.num_writes::total             62618                       # Number of write requests responded to by this memory
system.mem_ctrls0.bw_read::ruby.dir_cntrl0    234875243                       # Total read bandwidth from this memory (bytes/s)
system.mem_ctrls0.bw_read::total            234875243                       # Total read bandwidth from this memory (bytes/s)
system.mem_ctrls0.bw_write::ruby.dir_cntrl0     67070489                       # Write bandwidth from this memory (bytes/s)
system.mem_ctrls0.bw_write::total            67070489                       # Write bandwidth from this memory (bytes/s)
system.mem_ctrls0.bw_total::ruby.dir_cntrl0    301945731                       # Total bandwidth to/from this memory (bytes/s)
system.mem_ctrls0.bw_total::total           301945731                       # Total bandwidth to/from this memory (bytes/s)
system.mem_ctrls0.readReqs                     219283                       # Number of read requests accepted
system.mem_ctrls0.writeReqs                     62618                       # Number of write requests accepted
system.mem_ctrls0.readBursts                   219283                       # Number of DRAM read bursts, including those serviced by the write queue
system.mem_ctrls0.writeBursts                   62618                       # Number of DRAM write bursts, including those merged in the write queue
system.mem_ctrls0.bytesReadDRAM              14032448                       # Total number of bytes read from DRAM
system.mem_ctrls0.bytesReadWrQ                   1664                       # Total number of bytes read from write queue
system.mem_ctrls0.bytesWritten                4007296                       # Total number of bytes written to DRAM
system.mem_ctrls0.bytesReadSys               14034112                       # Total read bytes from the system interface side
system.mem_ctrls0.bytesWrittenSys             4007552                       # Total written bytes from the system interface side
system.mem_ctrls0.servicedByWrQ                    26                       # Number of DRAM read bursts serviced by the write queue
system.mem_ctrls0.mergedWrBursts                    0                       # Number of DRAM write bursts merged with an existing one
system.mem_ctrls0.neitherReadNorWriteReqs            0                       # Number of requests that are neither read nor write
system.mem_ctrls0.perBankRdBursts::0            13462                       # Per bank write bursts
system.mem_ctrls0.perBankRdBursts::1            13997                       # Per bank write bursts
system.mem_ctrls0.perBankRdBursts::2            13664                       # Per bank write bursts
system.mem_ctrls0.perBankRdBursts::3            14063                       # Per bank write bursts
system.mem_ctrls0.perBankRdBursts::4            13701                       # Per bank write bursts
system.mem_ctrls0.perBankRdBursts::5            14280                       # Per bank write bursts
system.mem_ctrls0.perBankRdBursts::6            13740                       # Per bank write bursts
system.mem_ctrls0.perBankRdBursts::7            13669                       # Per bank write bursts
system.mem_ctrls0.perBankRdBursts::8            13563                       # Per bank write bursts
system.mem_ctrls0.perBankRdBursts::9            13898                       # Per bank write bursts
system.mem_ctrls0.perBankRdBursts::10           13605                       # Per bank write bursts
system.mem_ctrls0.perBankRdBursts::11           13835                       # Per bank write bursts
system.mem_ctrls0.perBankRdBursts::12           13385                       # Per bank write bursts
system.mem_ctrls0.perBankRdBursts::13           13265                       # Per bank write bursts
system.mem_ctrls0.perBankRdBursts::14           13559                       # Per bank write bursts
system.mem_ctrls0.perBankRdBursts::15           13571                       # Per bank write bursts
system.mem_ctrls0.perBankWrBursts::0             3845                       # Per bank write bursts
system.mem_ctrls0.perBankWrBursts::1             3927                       # Per bank write bursts
system.mem_ctrls0.perBankWrBursts::2             3906                       # Per bank write bursts
system.mem_ctrls0.perBankWrBursts::3             4132                       # Per bank write bursts
system.mem_ctrls0.perBankWrBursts::4             3927                       # Per bank write bursts
system.mem_ctrls0.perBankWrBursts::5             4073                       # Per bank write bursts
system.mem_ctrls0.perBankWrBursts::6             3983                       # Per bank write bursts
system.mem_ctrls0.perBankWrBursts::7             3947                       # Per bank write bursts
system.mem_ctrls0.perBankWrBursts::8             3818                       # Per bank write bursts
system.mem_ctrls0.perBankWrBursts::9             4072                       # Per bank write bursts
system.mem_ctrls0.perBankWrBursts::10            3841                       # Per bank write bursts
system.mem_ctrls0.perBankWrBursts::11            3777                       # Per bank write bursts
system.mem_ctrls0.perBankWrBursts::12            3724                       # Per bank write bursts
system.mem_ctrls0.perBankWrBursts::13            3760                       # Per bank write bursts
system.mem_ctrls0.perBankWrBursts::14            4009                       # Per bank write bursts
system.mem_ctrls0.perBankWrBursts::15            3873                       # Per bank write bursts
system.mem_ctrls0.numRdRetry                      610                       # Number of times read queue was full causing retry
system.mem_ctrls0.numWrRetry                      286                       # Number of times write queue was full causing retry
system.mem_ctrls0.totGap                  59750855000                       # Total gap between requests
system.mem_ctrls0.readPktSize::0                    0                       # Read request sizes (log2)
system.mem_ctrls0.readPktSize::1                    0                       # Read request sizes (log2)
system.mem_ctrls0.readPktSize::2                    0                       # Read request sizes (log2)
system.mem_ctrls0.readPktSize::3                    0                       # Read request sizes (log2)
system.mem_ctrls0.readPktSize::4                    0                       # Read request sizes (log2)
system.mem_ctrls0.readPktSize::5                    0                       # Read request sizes (log2)
system.mem_ctrls0.readPktSize::6               219283                       # Read request sizes (log2)
system.mem_ctrls0.writePktSize::0                   0                       # Write request sizes (log2)
system.mem_ctrls0.writePktSize::1                   0                       # Write request sizes (log2)
system.mem_ctrls0.writePktSize::2                   0                       # Write request sizes (log2)
system.mem_ctrls0.writePktSize::3                   0                       # Write request sizes (log2)
system.mem_ctrls0.writePktSize::4                   0                       # Write request sizes (log2)
system.mem_ctrls0.writePktSize::5                   0                       # Write request sizes (log2)
system.mem_ctrls0.writePktSize::6               62618                       # Write request sizes (log2)
system.mem_ctrls0.rdQLenPdf::0                 160929                       # What read queue length does an incoming req see
system.mem_ctrls0.rdQLenPdf::1                  42440                       # What read queue length does an incoming req see
system.mem_ctrls0.rdQLenPdf::2                  11132                       # What read queue length does an incoming req see
system.mem_ctrls0.rdQLenPdf::3                   2602                       # What read queue length does an incoming req see
system.mem_ctrls0.rdQLenPdf::4                    576                       # What read queue length does an incoming req see
system.mem_ctrls0.rdQLenPdf::5                    153                       # What read queue length does an incoming req see
system.mem_ctrls0.rdQLenPdf::6                     83                       # What read queue length does an incoming req see
system.mem_ctrls0.rdQLenPdf::7                     61                       # What read queue length does an incoming req see
system.mem_ctrls0.rdQLenPdf::8                     50                       # What read queue length does an incoming req see
system.mem_ctrls0.rdQLenPdf::9                     51                       # What read queue length does an incoming req see
system.mem_ctrls0.rdQLenPdf::10                    44                       # What read queue length does an incoming req see
system.mem_ctrls0.rdQLenPdf::11                    28                       # What read queue length does an incoming req see
system.mem_ctrls0.rdQLenPdf::12                    28                       # What read queue length does an incoming req see
system.mem_ctrls0.rdQLenPdf::13                    17                       # What read queue length does an incoming req see
system.mem_ctrls0.rdQLenPdf::14                    25                       # What read queue length does an incoming req see
system.mem_ctrls0.rdQLenPdf::15                    17                       # What read queue length does an incoming req see
system.mem_ctrls0.rdQLenPdf::16                    18                       # What read queue length does an incoming req see
system.mem_ctrls0.rdQLenPdf::17                    17                       # What read queue length does an incoming req see
system.mem_ctrls0.rdQLenPdf::18                    22                       # What read queue length does an incoming req see
system.mem_ctrls0.rdQLenPdf::19                    23                       # What read queue length does an incoming req see
system.mem_ctrls0.rdQLenPdf::20                    24                       # What read queue length does an incoming req see
system.mem_ctrls0.rdQLenPdf::21                    22                       # What read queue length does an incoming req see
system.mem_ctrls0.rdQLenPdf::22                    15                       # What read queue length does an incoming req see
system.mem_ctrls0.rdQLenPdf::23                    21                       # What read queue length does an incoming req see
system.mem_ctrls0.rdQLenPdf::24                    18                       # What read queue length does an incoming req see
system.mem_ctrls0.rdQLenPdf::25                    22                       # What read queue length does an incoming req see
system.mem_ctrls0.rdQLenPdf::26                    26                       # What read queue length does an incoming req see
system.mem_ctrls0.rdQLenPdf::27                    21                       # What read queue length does an incoming req see
system.mem_ctrls0.rdQLenPdf::28                    31                       # What read queue length does an incoming req see
system.mem_ctrls0.rdQLenPdf::29                    38                       # What read queue length does an incoming req see
system.mem_ctrls0.rdQLenPdf::30                    38                       # What read queue length does an incoming req see
system.mem_ctrls0.rdQLenPdf::31                   665                       # What read queue length does an incoming req see
system.mem_ctrls0.wrQLenPdf::0                  12219                       # What write queue length does an incoming req see
system.mem_ctrls0.wrQLenPdf::1                  12401                       # What write queue length does an incoming req see
system.mem_ctrls0.wrQLenPdf::2                  12397                       # What write queue length does an incoming req see
system.mem_ctrls0.wrQLenPdf::3                  12373                       # What write queue length does an incoming req see
system.mem_ctrls0.wrQLenPdf::4                  12337                       # What write queue length does an incoming req see
system.mem_ctrls0.wrQLenPdf::5                    227                       # What write queue length does an incoming req see
system.mem_ctrls0.wrQLenPdf::6                    179                       # What write queue length does an incoming req see
system.mem_ctrls0.wrQLenPdf::7                    485                       # What write queue length does an incoming req see
system.mem_ctrls0.bytesPerActivate::samples        85521                       # Bytes accessed per row activation
system.mem_ctrls0.bytesPerActivate::mean   210.929620                       # Bytes accessed per row activation
system.mem_ctrls0.bytesPerActivate::gmean   135.814532                       # Bytes accessed per row activation
system.mem_ctrls0.bytesPerActivate::stdev   239.703102                       # Bytes accessed per row activation
system.mem_ctrls0.bytesPerActivate::0-127        41505     48.53%     48.53% # Bytes accessed per row activation
system.mem_ctrls0.bytesPerActivate::128-255        17819     20.84%     69.37% # Bytes accessed per row activation
system.mem_ctrls0.bytesPerActivate::256-383        14881     17.40%     86.77% # Bytes accessed per row activation
system.mem_ctrls0.bytesPerActivate::384-511         2581      3.02%     89.79% # Bytes accessed per row activation
system.mem_ctrls0.bytesPerActivate::512-639         1831      2.14%     91.93% # Bytes accessed per row activation
system.mem_ctrls0.bytesPerActivate::640-767         1290      1.51%     93.44% # Bytes accessed per row activation
system.mem_ctrls0.bytesPerActivate::768-895         1078      1.26%     94.70% # Bytes accessed per row activation
system.mem_ctrls0.bytesPerActivate::896-1023          919      1.07%     95.77% # Bytes accessed per row activation
system.mem_ctrls0.bytesPerActivate::1024-1151         3617      4.23%    100.00% # Bytes accessed per row activation
system.mem_ctrls0.bytesPerActivate::total        85521                       # Bytes accessed per row activation
system.mem_ctrls0.rdPerTurnAround::samples        12249                       # Reads before turning the bus around for writes
system.mem_ctrls0.rdPerTurnAround::mean     17.740714                       # Reads before turning the bus around for writes
system.mem_ctrls0.rdPerTurnAround::stdev    75.972189                       # Reads before turning the bus around for writes
system.mem_ctrls0.rdPerTurnAround::0-127        11877     96.96%     96.96% # Reads before turning the bus around for writes
system.mem_ctrls0.rdPerTurnAround::128-255          192      1.57%     98.53% # Reads before turning the bus around for writes
system.mem_ctrls0.rdPerTurnAround::256-383           95      0.78%     99.31% # Reads before turning the bus around for writes
system.mem_ctrls0.rdPerTurnAround::384-511           41      0.33%     99.64% # Reads before turning the bus around for writes
system.mem_ctrls0.rdPerTurnAround::512-639           16      0.13%     99.77% # Reads before turning the bus around for writes
system.mem_ctrls0.rdPerTurnAround::640-767           10      0.08%     99.85% # Reads before turning the bus around for writes
system.mem_ctrls0.rdPerTurnAround::768-895            5      0.04%     99.89% # Reads before turning the bus around for writes
system.mem_ctrls0.rdPerTurnAround::896-1023            7      0.06%     99.95% # Reads before turning the bus around for writes
system.mem_ctrls0.rdPerTurnAround::1152-1279            1      0.01%     99.96% # Reads before turning the bus around for writes
system.mem_ctrls0.rdPerTurnAround::1408-1535            2      0.02%     99.98% # Reads before turning the bus around for writes
system.mem_ctrls0.rdPerTurnAround::1792-1919            2      0.02%     99.99% # Reads before turning the bus around for writes
system.mem_ctrls0.rdPerTurnAround::3968-4095            1      0.01%    100.00% # Reads before turning the bus around for writes
system.mem_ctrls0.rdPerTurnAround::total        12249                       # Reads before turning the bus around for writes
system.mem_ctrls0.wrPerTurnAround::samples        12249                       # Writes before turning the bus around for reads
system.mem_ctrls0.wrPerTurnAround::mean      5.111764                       # Writes before turning the bus around for reads
system.mem_ctrls0.wrPerTurnAround::gmean     5.076884                       # Writes before turning the bus around for reads
system.mem_ctrls0.wrPerTurnAround::stdev     0.854446                       # Writes before turning the bus around for reads
system.mem_ctrls0.wrPerTurnAround::4-7          12143     99.13%     99.13% # Writes before turning the bus around for reads
system.mem_ctrls0.wrPerTurnAround::8-11            34      0.28%     99.41% # Writes before turning the bus around for reads
system.mem_ctrls0.wrPerTurnAround::12-15           18      0.15%     99.56% # Writes before turning the bus around for reads
system.mem_ctrls0.wrPerTurnAround::16-19           54      0.44%    100.00% # Writes before turning the bus around for reads
system.mem_ctrls0.wrPerTurnAround::total        12249                       # Writes before turning the bus around for reads
system.mem_ctrls0.totQLat                  3010905582                       # Total ticks spent queuing
system.mem_ctrls0.totMemAccLat             7121974332                       # Total ticks spent from burst creation until serviced by the DRAM
system.mem_ctrls0.totBusLat                1096285000                       # Total ticks spent in databus transfers
system.mem_ctrls0.avgQLat                    13732.31                       # Average queueing delay per DRAM burst
system.mem_ctrls0.avgBusLat                   5000.00                       # Average bus latency per DRAM burst
system.mem_ctrls0.avgMemAccLat               32482.31                       # Average memory access latency per DRAM burst
system.mem_ctrls0.avgRdBW                      234.85                       # Average DRAM read bandwidth in MiByte/s
system.mem_ctrls0.avgWrBW                       67.07                       # Average achieved write bandwidth in MiByte/s
system.mem_ctrls0.avgRdBWSys                   234.88                       # Average system read bandwidth in MiByte/s
system.mem_ctrls0.avgWrBWSys                    67.07                       # Average system write bandwidth in MiByte/s
system.mem_ctrls0.peakBW                     12800.00                       # Theoretical peak bandwidth in MiByte/s
system.mem_ctrls0.busUtil                        2.36                       # Data bus utilization in percentage
system.mem_ctrls0.busUtilRead                    1.83                       # Data bus utilization in percentage for reads
system.mem_ctrls0.busUtilWrite                   0.52                       # Data bus utilization in percentage for writes
system.mem_ctrls0.avgRdQLen                      1.12                       # Average read queue length when enqueuing
system.mem_ctrls0.avgWrQLen                      2.89                       # Average write queue length when enqueuing
system.mem_ctrls0.readRowHits                  157823                       # Number of row buffer hits during reads
system.mem_ctrls0.writeRowHits                  38519                       # Number of row buffer hits during writes
system.mem_ctrls0.readRowHitRate                71.98                       # Row buffer hit rate for reads
system.mem_ctrls0.writeRowHitRate               61.51                       # Row buffer hit rate for writes
system.mem_ctrls0.avgGap                    211956.87                       # Average gap between requests
system.mem_ctrls0.pageHitRate                   69.66                       # Row buffer hit rate, read and write combined
system.mem_ctrls0.memoryStateTime::IDLE   10785838250                       # Time in different power states
system.mem_ctrls0.memoryStateTime::REF     1994980000                       # Time in different power states
system.mem_ctrls0.memoryStateTime::PRE_PDN            0                       # Time in different power states
system.mem_ctrls0.memoryStateTime::ACT    46963608750                       # Time in different power states
system.mem_ctrls0.memoryStateTime::ACT_PDN            0                       # Time in different power states
system.mem_ctrls0.actEnergy::0              328807080                       # Energy for activate commands per rank (pJ)
system.mem_ctrls0.actEnergy::1              317701440                       # Energy for activate commands per rank (pJ)
system.mem_ctrls0.preEnergy::0              179408625                       # Energy for precharge commands per rank (pJ)
system.mem_ctrls0.preEnergy::1              173349000                       # Energy for precharge commands per rank (pJ)
system.mem_ctrls0.readEnergy::0             862399200                       # Energy for read commands per rank (pJ)
system.mem_ctrls0.readEnergy::1             847665000                       # Energy for read commands per rank (pJ)
system.mem_ctrls0.writeEnergy::0            205675200                       # Energy for write commands per rank (pJ)
system.mem_ctrls0.writeEnergy::1            200063520                       # Energy for write commands per rank (pJ)
system.mem_ctrls0.refreshEnergy::0         3902180880                       # Energy for refresh commands per rank (pJ)
system.mem_ctrls0.refreshEnergy::1         3902180880                       # Energy for refresh commands per rank (pJ)
system.mem_ctrls0.actBackEnergy::0        25625183625                       # Energy for active background per rank (pJ)
system.mem_ctrls0.actBackEnergy::1        24928317585                       # Energy for active background per rank (pJ)
system.mem_ctrls0.preBackEnergy::0        13368262500                       # Energy for precharge background per rank (pJ)
system.mem_ctrls0.preBackEnergy::1        13979548500                       # Energy for precharge background per rank (pJ)
system.mem_ctrls0.totalEnergy::0          44471917110                       # Total energy per rank (pJ)
system.mem_ctrls0.totalEnergy::1          44348825925                       # Total energy per rank (pJ)
system.mem_ctrls0.averagePower::0          744.372670                       # Core power per rank (mW)
system.mem_ctrls0.averagePower::1          742.312365                       # Core power per rank (mW)
system.mem_ctrls1.bytes_read::ruby.dir_cntrl1     13851072                       # Number of bytes read from this memory
system.mem_ctrls1.bytes_read::total          13851072                       # Number of bytes read from this memory
system.mem_ctrls1.bytes_written::ruby.dir_cntrl1      3840704                       # Number of bytes written to this memory
system.mem_ctrls1.bytes_written::total        3840704                       # Number of bytes written to this memory
system.mem_ctrls1.num_reads::ruby.dir_cntrl1       216423                       # Number of read requests responded to by this memory
system.mem_ctrls1.num_reads::total             216423                       # Number of read requests responded to by this memory
system.mem_ctrls1.num_writes::ruby.dir_cntrl1        60011                       # Number of write requests responded to by this memory
system.mem_ctrls1.num_writes::total             60011                       # Number of write requests responded to by this memory
system.mem_ctrls1.bw_read::ruby.dir_cntrl1    231811881                       # Total read bandwidth from this memory (bytes/s)
system.mem_ctrls1.bw_read::total            231811881                       # Total read bandwidth from this memory (bytes/s)
system.mem_ctrls1.bw_write::ruby.dir_cntrl1     64278116                       # Write bandwidth from this memory (bytes/s)
system.mem_ctrls1.bw_write::total            64278116                       # Write bandwidth from this memory (bytes/s)
system.mem_ctrls1.bw_total::ruby.dir_cntrl1    296089997                       # Total bandwidth to/from this memory (bytes/s)
system.mem_ctrls1.bw_total::total           296089997                       # Total bandwidth to/from this memory (bytes/s)
system.mem_ctrls1.readReqs                     216423                       # Number of read requests accepted
system.mem_ctrls1.writeReqs                     60011                       # Number of write requests accepted
system.mem_ctrls1.readBursts                   216423                       # Number of DRAM read bursts, including those serviced by the write queue
system.mem_ctrls1.writeBursts                   60011                       # Number of DRAM write bursts, including those merged in the write queue
system.mem_ctrls1.bytesReadDRAM              13849664                       # Total number of bytes read from DRAM
system.mem_ctrls1.bytesReadWrQ                   1408                       # Total number of bytes read from write queue
system.mem_ctrls1.bytesWritten                3840448                       # Total number of bytes written to DRAM
system.mem_ctrls1.bytesReadSys               13851072                       # Total read bytes from the system interface side
system.mem_ctrls1.bytesWrittenSys             3840704                       # Total written bytes from the system interface side
system.mem_ctrls1.servicedByWrQ                    22                       # Number of DRAM read bursts serviced by the write queue
system.mem_ctrls1.mergedWrBursts                    0                       # Number of DRAM write bursts merged with an existing one
system.mem_ctrls1.neitherReadNorWriteReqs            0                       # Number of requests that are neither read nor write
system.mem_ctrls1.perBankRdBursts::0            13290                       # Per bank write bursts
system.mem_ctrls1.perBankRdBursts::1            13819                       # Per bank write bursts
system.mem_ctrls1.perBankRdBursts::2            13485                       # Per bank write bursts
system.mem_ctrls1.perBankRdBursts::3            13893                       # Per bank write bursts
system.mem_ctrls1.perBankRdBursts::4            13534                       # Per bank write bursts
system.mem_ctrls1.perBankRdBursts::5            14119                       # Per bank write bursts
system.mem_ctrls1.perBankRdBursts::6            13534                       # Per bank write bursts
system.mem_ctrls1.perBankRdBursts::7            13509                       # Per bank write bursts
system.mem_ctrls1.perBankRdBursts::8            13400                       # Per bank write bursts
system.mem_ctrls1.perBankRdBursts::9            13712                       # Per bank write bursts
system.mem_ctrls1.perBankRdBursts::10           13419                       # Per bank write bursts
system.mem_ctrls1.perBankRdBursts::11           13657                       # Per bank write bursts
system.mem_ctrls1.perBankRdBursts::12           13210                       # Per bank write bursts
system.mem_ctrls1.perBankRdBursts::13           13105                       # Per bank write bursts
system.mem_ctrls1.perBankRdBursts::14           13294                       # Per bank write bursts
system.mem_ctrls1.perBankRdBursts::15           13421                       # Per bank write bursts
system.mem_ctrls1.perBankWrBursts::0             3686                       # Per bank write bursts
system.mem_ctrls1.perBankWrBursts::1             3780                       # Per bank write bursts
system.mem_ctrls1.perBankWrBursts::2             3765                       # Per bank write bursts
system.mem_ctrls1.perBankWrBursts::3             3979                       # Per bank write bursts
system.mem_ctrls1.perBankWrBursts::4             3771                       # Per bank write bursts
system.mem_ctrls1.perBankWrBursts::5             3923                       # Per bank write bursts
system.mem_ctrls1.perBankWrBursts::6             3803                       # Per bank write bursts
system.mem_ctrls1.perBankWrBursts::7             3779                       # Per bank write bursts
system.mem_ctrls1.perBankWrBursts::8             3663                       # Per bank write bursts
system.mem_ctrls1.perBankWrBursts::9             3898                       # Per bank write bursts
system.mem_ctrls1.perBankWrBursts::10            3678                       # Per bank write bursts
system.mem_ctrls1.perBankWrBursts::11            3611                       # Per bank write bursts
system.mem_ctrls1.perBankWrBursts::12            3566                       # Per bank write bursts
system.mem_ctrls1.perBankWrBursts::13            3595                       # Per bank write bursts
system.mem_ctrls1.perBankWrBursts::14            3794                       # Per bank write bursts
system.mem_ctrls1.perBankWrBursts::15            3716                       # Per bank write bursts
system.mem_ctrls1.numRdRetry                      211                       # Number of times read queue was full causing retry
system.mem_ctrls1.numWrRetry                      182                       # Number of times write queue was full causing retry
system.mem_ctrls1.totGap                  59750596000                       # Total gap between requests
system.mem_ctrls1.readPktSize::0                    0                       # Read request sizes (log2)
system.mem_ctrls1.readPktSize::1                    0                       # Read request sizes (log2)
system.mem_ctrls1.readPktSize::2                    0                       # Read request sizes (log2)
system.mem_ctrls1.readPktSize::3                    0                       # Read request sizes (log2)
system.mem_ctrls1.readPktSize::4                    0                       # Read request sizes (log2)
system.mem_ctrls1.readPktSize::5                    0                       # Read request sizes (log2)
system.mem_ctrls1.readPktSize::6               216423                       # Read request sizes (log2)
system.mem_ctrls1.writePktSize::0                   0                       # Write request sizes (log2)
system.mem_ctrls1.writePktSize::1                   0                       # Write request sizes (log2)
system.mem_ctrls1.writePktSize::2                   0                       # Write request sizes (log2)
system.mem_ctrls1.writePktSize::3                   0                       # Write request sizes (log2)
system.mem_ctrls1.writePktSize::4                   0                       # Write request sizes (log2)
system.mem_ctrls1.writePktSize::5                   0                       # Write request sizes (log2)
system.mem_ctrls1.writePktSize::6               60011                       # Write request sizes (log2)
system.mem_ctrls1.rdQLenPdf::0                 158709                       # What read queue length does an incoming req see
system.mem_ctrls1.rdQLenPdf::1                  42844                       # What read queue length does an incoming req see
system.mem_ctrls1.rdQLenPdf::2                  10723                       # What read queue length does an incoming req see
system.mem_ctrls1.rdQLenPdf::3                   2301                       # What read queue length does an incoming req see
system.mem_ctrls1.rdQLenPdf::4                    454                       # What read queue length does an incoming req see
system.mem_ctrls1.rdQLenPdf::5                    137                       # What read queue length does an incoming req see
system.mem_ctrls1.rdQLenPdf::6                     83                       # What read queue length does an incoming req see
system.mem_ctrls1.rdQLenPdf::7                     91                       # What read queue length does an incoming req see
system.mem_ctrls1.rdQLenPdf::8                     63                       # What read queue length does an incoming req see
system.mem_ctrls1.rdQLenPdf::9                     56                       # What read queue length does an incoming req see
system.mem_ctrls1.rdQLenPdf::10                    41                       # What read queue length does an incoming req see
system.mem_ctrls1.rdQLenPdf::11                    39                       # What read queue length does an incoming req see
system.mem_ctrls1.rdQLenPdf::12                    51                       # What read queue length does an incoming req see
system.mem_ctrls1.rdQLenPdf::13                    47                       # What read queue length does an incoming req see
system.mem_ctrls1.rdQLenPdf::14                    49                       # What read queue length does an incoming req see
system.mem_ctrls1.rdQLenPdf::15                    45                       # What read queue length does an incoming req see
system.mem_ctrls1.rdQLenPdf::16                    45                       # What read queue length does an incoming req see
system.mem_ctrls1.rdQLenPdf::17                    42                       # What read queue length does an incoming req see
system.mem_ctrls1.rdQLenPdf::18                    39                       # What read queue length does an incoming req see
system.mem_ctrls1.rdQLenPdf::19                    36                       # What read queue length does an incoming req see
system.mem_ctrls1.rdQLenPdf::20                    39                       # What read queue length does an incoming req see
system.mem_ctrls1.rdQLenPdf::21                    39                       # What read queue length does an incoming req see
system.mem_ctrls1.rdQLenPdf::22                    30                       # What read queue length does an incoming req see
system.mem_ctrls1.rdQLenPdf::23                    19                       # What read queue length does an incoming req see
system.mem_ctrls1.rdQLenPdf::24                    23                       # What read queue length does an incoming req see
system.mem_ctrls1.rdQLenPdf::25                    18                       # What read queue length does an incoming req see
system.mem_ctrls1.rdQLenPdf::26                    19                       # What read queue length does an incoming req see
system.mem_ctrls1.rdQLenPdf::27                    15                       # What read queue length does an incoming req see
system.mem_ctrls1.rdQLenPdf::28                    15                       # What read queue length does an incoming req see
system.mem_ctrls1.rdQLenPdf::29                    21                       # What read queue length does an incoming req see
system.mem_ctrls1.rdQLenPdf::30                    19                       # What read queue length does an incoming req see
system.mem_ctrls1.rdQLenPdf::31                   249                       # What read queue length does an incoming req see
system.mem_ctrls1.wrQLenPdf::0                  11732                       # What write queue length does an incoming req see
system.mem_ctrls1.wrQLenPdf::1                  11920                       # What write queue length does an incoming req see
system.mem_ctrls1.wrQLenPdf::2                  11925                       # What write queue length does an incoming req see
system.mem_ctrls1.wrQLenPdf::3                  11895                       # What write queue length does an incoming req see
system.mem_ctrls1.wrQLenPdf::4                  11854                       # What write queue length does an incoming req see
system.mem_ctrls1.wrQLenPdf::5                    209                       # What write queue length does an incoming req see
system.mem_ctrls1.wrQLenPdf::6                    154                       # What write queue length does an incoming req see
system.mem_ctrls1.wrQLenPdf::7                    322                       # What write queue length does an incoming req see
system.mem_ctrls1.bytesPerActivate::samples        81166                       # Bytes accessed per row activation
system.mem_ctrls1.bytesPerActivate::mean   217.935589                       # Bytes accessed per row activation
system.mem_ctrls1.bytesPerActivate::gmean   139.400012                       # Bytes accessed per row activation
system.mem_ctrls1.bytesPerActivate::stdev   245.965063                       # Bytes accessed per row activation
system.mem_ctrls1.bytesPerActivate::0-127        38362     47.26%     47.26% # Bytes accessed per row activation
system.mem_ctrls1.bytesPerActivate::128-255        17031     20.98%     68.25% # Bytes accessed per row activation
system.mem_ctrls1.bytesPerActivate::256-383        14365     17.70%     85.94% # Bytes accessed per row activation
system.mem_ctrls1.bytesPerActivate::384-511         2522      3.11%     89.05% # Bytes accessed per row activation
system.mem_ctrls1.bytesPerActivate::512-639         1818      2.24%     91.29% # Bytes accessed per row activation
system.mem_ctrls1.bytesPerActivate::640-767         1380      1.70%     92.99% # Bytes accessed per row activation
system.mem_ctrls1.bytesPerActivate::768-895         1058      1.30%     94.30% # Bytes accessed per row activation
system.mem_ctrls1.bytesPerActivate::896-1023          910      1.12%     95.42% # Bytes accessed per row activation
system.mem_ctrls1.bytesPerActivate::1024-1151         3720      4.58%    100.00% # Bytes accessed per row activation
system.mem_ctrls1.bytesPerActivate::total        81166                       # Bytes accessed per row activation
system.mem_ctrls1.rdPerTurnAround::samples        11761                       # Reads before turning the bus around for writes
system.mem_ctrls1.rdPerTurnAround::mean     18.234334                       # Reads before turning the bus around for writes
system.mem_ctrls1.rdPerTurnAround::stdev    75.340114                       # Reads before turning the bus around for writes
system.mem_ctrls1.rdPerTurnAround::0-127        11398     96.91%     96.91% # Reads before turning the bus around for writes
system.mem_ctrls1.rdPerTurnAround::128-255          174      1.48%     98.39% # Reads before turning the bus around for writes
system.mem_ctrls1.rdPerTurnAround::256-383           92      0.78%     99.18% # Reads before turning the bus around for writes
system.mem_ctrls1.rdPerTurnAround::384-511           51      0.43%     99.61% # Reads before turning the bus around for writes
system.mem_ctrls1.rdPerTurnAround::512-639           23      0.20%     99.80% # Reads before turning the bus around for writes
system.mem_ctrls1.rdPerTurnAround::640-767           11      0.09%     99.90% # Reads before turning the bus around for writes
system.mem_ctrls1.rdPerTurnAround::768-895            3      0.03%     99.92% # Reads before turning the bus around for writes
system.mem_ctrls1.rdPerTurnAround::896-1023            1      0.01%     99.93% # Reads before turning the bus around for writes
system.mem_ctrls1.rdPerTurnAround::1152-1279            2      0.02%     99.95% # Reads before turning the bus around for writes
system.mem_ctrls1.rdPerTurnAround::1408-1535            1      0.01%     99.96% # Reads before turning the bus around for writes
system.mem_ctrls1.rdPerTurnAround::1536-1663            1      0.01%     99.97% # Reads before turning the bus around for writes
system.mem_ctrls1.rdPerTurnAround::1792-1919            2      0.02%     99.98% # Reads before turning the bus around for writes
system.mem_ctrls1.rdPerTurnAround::2048-2175            1      0.01%     99.99% # Reads before turning the bus around for writes
system.mem_ctrls1.rdPerTurnAround::2816-2943            1      0.01%    100.00% # Reads before turning the bus around for writes
system.mem_ctrls1.rdPerTurnAround::total        11761                       # Reads before turning the bus around for writes
system.mem_ctrls1.wrPerTurnAround::samples        11761                       # Writes before turning the bus around for reads
system.mem_ctrls1.wrPerTurnAround::mean      5.102202                       # Writes before turning the bus around for reads
system.mem_ctrls1.wrPerTurnAround::gmean     5.071490                       # Writes before turning the bus around for reads
system.mem_ctrls1.wrPerTurnAround::stdev     0.792994                       # Writes before turning the bus around for reads
system.mem_ctrls1.wrPerTurnAround::4-7          11661     99.15%     99.15% # Writes before turning the bus around for reads
system.mem_ctrls1.wrPerTurnAround::8-11            40      0.34%     99.49% # Writes before turning the bus around for reads
system.mem_ctrls1.wrPerTurnAround::12-15           22      0.19%     99.68% # Writes before turning the bus around for reads
system.mem_ctrls1.wrPerTurnAround::16-19           38      0.32%    100.00% # Writes before turning the bus around for reads
system.mem_ctrls1.wrPerTurnAround::total        11761                       # Writes before turning the bus around for reads
system.mem_ctrls1.totQLat                  2763989115                       # Total ticks spent queuing
system.mem_ctrls1.totMemAccLat             6821507865                       # Total ticks spent from burst creation until serviced by the DRAM
system.mem_ctrls1.totBusLat                1082005000                       # Total ticks spent in databus transfers
system.mem_ctrls1.avgQLat                    12772.53                       # Average queueing delay per DRAM burst
system.mem_ctrls1.avgBusLat                   5000.00                       # Average bus latency per DRAM burst
system.mem_ctrls1.avgMemAccLat               31522.53                       # Average memory access latency per DRAM burst
system.mem_ctrls1.avgRdBW                      231.79                       # Average DRAM read bandwidth in MiByte/s
system.mem_ctrls1.avgWrBW                       64.27                       # Average achieved write bandwidth in MiByte/s
system.mem_ctrls1.avgRdBWSys                   231.81                       # Average system read bandwidth in MiByte/s
system.mem_ctrls1.avgWrBWSys                    64.28                       # Average system write bandwidth in MiByte/s
system.mem_ctrls1.peakBW                     12800.00                       # Theoretical peak bandwidth in MiByte/s
system.mem_ctrls1.busUtil                        2.31                       # Data bus utilization in percentage
system.mem_ctrls1.busUtilRead                    1.81                       # Data bus utilization in percentage for reads
system.mem_ctrls1.busUtilWrite                   0.50                       # Data bus utilization in percentage for writes
system.mem_ctrls1.avgRdQLen                      1.10                       # Average read queue length when enqueuing
system.mem_ctrls1.avgWrQLen                      2.91                       # Average write queue length when enqueuing
system.mem_ctrls1.readRowHits                  156417                       # Number of row buffer hits during reads
system.mem_ctrls1.writeRowHits                  38817                       # Number of row buffer hits during writes
system.mem_ctrls1.readRowHitRate                72.28                       # Row buffer hit rate for reads
system.mem_ctrls1.writeRowHitRate               64.68                       # Row buffer hit rate for writes
system.mem_ctrls1.avgGap                    216147.78                       # Average gap between requests
system.mem_ctrls1.pageHitRate                   70.63                       # Row buffer hit rate, read and write combined
system.mem_ctrls1.memoryStateTime::IDLE   11220702000                       # Time in different power states
system.mem_ctrls1.memoryStateTime::REF     1994980000                       # Time in different power states
system.mem_ctrls1.memoryStateTime::PRE_PDN            0                       # Time in different power states
system.mem_ctrls1.memoryStateTime::ACT    46528858000                       # Time in different power states
system.mem_ctrls1.memoryStateTime::ACT_PDN            0                       # Time in different power states
system.mem_ctrls1.actEnergy::0              312893280                       # Energy for activate commands per rank (pJ)
system.mem_ctrls1.actEnergy::1              300714120                       # Energy for activate commands per rank (pJ)
system.mem_ctrls1.preEnergy::0              170725500                       # Energy for precharge commands per rank (pJ)
system.mem_ctrls1.preEnergy::1              164080125                       # Energy for precharge commands per rank (pJ)
system.mem_ctrls1.readEnergy::0             851518200                       # Energy for read commands per rank (pJ)
system.mem_ctrls1.readEnergy::1             836261400                       # Energy for read commands per rank (pJ)
system.mem_ctrls1.writeEnergy::0            197549280                       # Energy for write commands per rank (pJ)
system.mem_ctrls1.writeEnergy::1            191296080                       # Energy for write commands per rank (pJ)
system.mem_ctrls1.refreshEnergy::0         3902180880                       # Energy for refresh commands per rank (pJ)
system.mem_ctrls1.refreshEnergy::1         3902180880                       # Energy for refresh commands per rank (pJ)
system.mem_ctrls1.actBackEnergy::0        25313411295                       # Energy for active background per rank (pJ)
system.mem_ctrls1.actBackEnergy::1        24346785060                       # Energy for active background per rank (pJ)
system.mem_ctrls1.preBackEnergy::0        13641747000                       # Energy for precharge background per rank (pJ)
system.mem_ctrls1.preBackEnergy::1        14489664750                       # Energy for precharge background per rank (pJ)
system.mem_ctrls1.totalEnergy::0          44390025435                       # Total energy per rank (pJ)
system.mem_ctrls1.totalEnergy::1          44230982415                       # Total energy per rank (pJ)
system.mem_ctrls1.averagePower::0          743.001964                       # Core power per rank (mW)
system.mem_ctrls1.averagePower::1          740.339896                       # Core power per rank (mW)
system.mem_ctrls2.bytes_read::ruby.dir_cntrl2     13851712                       # Number of bytes read from this memory
system.mem_ctrls2.bytes_read::total          13851712                       # Number of bytes read from this memory
system.mem_ctrls2.bytes_written::ruby.dir_cntrl2      3841920                       # Number of bytes written to this memory
system.mem_ctrls2.bytes_written::total        3841920                       # Number of bytes written to this memory
system.mem_ctrls2.num_reads::ruby.dir_cntrl2       216433                       # Number of read requests responded to by this memory
system.mem_ctrls2.num_reads::total             216433                       # Number of read requests responded to by this memory
system.mem_ctrls2.num_writes::ruby.dir_cntrl2        60030                       # Number of write requests responded to by this memory
system.mem_ctrls2.num_writes::total             60030                       # Number of write requests responded to by this memory
system.mem_ctrls2.bw_read::ruby.dir_cntrl2    231822592                       # Total read bandwidth from this memory (bytes/s)
system.mem_ctrls2.bw_read::total            231822592                       # Total read bandwidth from this memory (bytes/s)
system.mem_ctrls2.bw_write::ruby.dir_cntrl2     64298467                       # Write bandwidth from this memory (bytes/s)
system.mem_ctrls2.bw_write::total            64298467                       # Write bandwidth from this memory (bytes/s)
system.mem_ctrls2.bw_total::ruby.dir_cntrl2    296121059                       # Total bandwidth to/from this memory (bytes/s)
system.mem_ctrls2.bw_total::total           296121059                       # Total bandwidth to/from this memory (bytes/s)
system.mem_ctrls2.readReqs                     216433                       # Number of read requests accepted
system.mem_ctrls2.writeReqs                     60030                       # Number of write requests accepted
system.mem_ctrls2.readBursts                   216433                       # Number of DRAM read bursts, including those serviced by the write queue
system.mem_ctrls2.writeBursts                   60030                       # Number of DRAM write bursts, including those merged in the write queue
system.mem_ctrls2.bytesReadDRAM              13850944                       # Total number of bytes read from DRAM
system.mem_ctrls2.bytesReadWrQ                    768                       # Total number of bytes read from write queue
system.mem_ctrls2.bytesWritten                3841920                       # Total number of bytes written to DRAM
system.mem_ctrls2.bytesReadSys               13851712                       # Total read bytes from the system interface side
system.mem_ctrls2.bytesWrittenSys             3841920                       # Total written bytes from the system interface side
system.mem_ctrls2.servicedByWrQ                    12                       # Number of DRAM read bursts serviced by the write queue
system.mem_ctrls2.mergedWrBursts                    0                       # Number of DRAM write bursts merged with an existing one
system.mem_ctrls2.neitherReadNorWriteReqs            0                       # Number of requests that are neither read nor write
system.mem_ctrls2.perBankRdBursts::0            13291                       # Per bank write bursts
system.mem_ctrls2.perBankRdBursts::1            13833                       # Per bank write bursts
system.mem_ctrls2.perBankRdBursts::2            13508                       # Per bank write bursts
system.mem_ctrls2.perBankRdBursts::3            13918                       # Per bank write bursts
system.mem_ctrls2.perBankRdBursts::4            13545                       # Per bank write bursts
system.mem_ctrls2.perBankRdBursts::5            14108                       # Per bank write bursts
system.mem_ctrls2.perBankRdBursts::6            13494                       # Per bank write bursts
system.mem_ctrls2.perBankRdBursts::7            13499                       # Per bank write bursts
system.mem_ctrls2.perBankRdBursts::8            13395                       # Per bank write bursts
system.mem_ctrls2.perBankRdBursts::9            13711                       # Per bank write bursts
system.mem_ctrls2.perBankRdBursts::10           13425                       # Per bank write bursts
system.mem_ctrls2.perBankRdBursts::11           13701                       # Per bank write bursts
system.mem_ctrls2.perBankRdBursts::12           13205                       # Per bank write bursts
system.mem_ctrls2.perBankRdBursts::13           13068                       # Per bank write bursts
system.mem_ctrls2.perBankRdBursts::14           13299                       # Per bank write bursts
system.mem_ctrls2.perBankRdBursts::15           13421                       # Per bank write bursts
system.mem_ctrls2.perBankWrBursts::0             3682                       # Per bank write bursts
system.mem_ctrls2.perBankWrBursts::1             3777                       # Per bank write bursts
system.mem_ctrls2.perBankWrBursts::2             3762                       # Per bank write bursts
system.mem_ctrls2.perBankWrBursts::3             3992                       # Per bank write bursts
system.mem_ctrls2.perBankWrBursts::4             3770                       # Per bank write bursts
system.mem_ctrls2.perBankWrBursts::5             3914                       # Per bank write bursts
system.mem_ctrls2.perBankWrBursts::6             3812                       # Per bank write bursts
system.mem_ctrls2.perBankWrBursts::7             3786                       # Per bank write bursts
system.mem_ctrls2.perBankWrBursts::8             3665                       # Per bank write bursts
system.mem_ctrls2.perBankWrBursts::9             3906                       # Per bank write bursts
system.mem_ctrls2.perBankWrBursts::10            3674                       # Per bank write bursts
system.mem_ctrls2.perBankWrBursts::11            3608                       # Per bank write bursts
system.mem_ctrls2.perBankWrBursts::12            3575                       # Per bank write bursts
system.mem_ctrls2.perBankWrBursts::13            3589                       # Per bank write bursts
system.mem_ctrls2.perBankWrBursts::14            3799                       # Per bank write bursts
system.mem_ctrls2.perBankWrBursts::15            3719                       # Per bank write bursts
system.mem_ctrls2.numRdRetry                      266                       # Number of times read queue was full causing retry
system.mem_ctrls2.numWrRetry                      221                       # Number of times write queue was full causing retry
system.mem_ctrls2.totGap                  59750629000                       # Total gap between requests
system.mem_ctrls2.readPktSize::0                    0                       # Read request sizes (log2)
system.mem_ctrls2.readPktSize::1                    0                       # Read request sizes (log2)
system.mem_ctrls2.readPktSize::2                    0                       # Read request sizes (log2)
system.mem_ctrls2.readPktSize::3                    0                       # Read request sizes (log2)
system.mem_ctrls2.readPktSize::4                    0                       # Read request sizes (log2)
system.mem_ctrls2.readPktSize::5                    0                       # Read request sizes (log2)
system.mem_ctrls2.readPktSize::6               216433                       # Read request sizes (log2)
system.mem_ctrls2.writePktSize::0                   0                       # Write request sizes (log2)
system.mem_ctrls2.writePktSize::1                   0                       # Write request sizes (log2)
system.mem_ctrls2.writePktSize::2                   0                       # Write request sizes (log2)
system.mem_ctrls2.writePktSize::3                   0                       # Write request sizes (log2)
system.mem_ctrls2.writePktSize::4                   0                       # Write request sizes (log2)
system.mem_ctrls2.writePktSize::5                   0                       # Write request sizes (log2)
system.mem_ctrls2.writePktSize::6               60030                       # Write request sizes (log2)
system.mem_ctrls2.rdQLenPdf::0                 159180                       # What read queue length does an incoming req see
system.mem_ctrls2.rdQLenPdf::1                  42231                       # What read queue length does an incoming req see
system.mem_ctrls2.rdQLenPdf::2                  10788                       # What read queue length does an incoming req see
system.mem_ctrls2.rdQLenPdf::3                   2359                       # What read queue length does an incoming req see
system.mem_ctrls2.rdQLenPdf::4                    474                       # What read queue length does an incoming req see
system.mem_ctrls2.rdQLenPdf::5                    148                       # What read queue length does an incoming req see
system.mem_ctrls2.rdQLenPdf::6                     77                       # What read queue length does an incoming req see
system.mem_ctrls2.rdQLenPdf::7                     57                       # What read queue length does an incoming req see
system.mem_ctrls2.rdQLenPdf::8                     49                       # What read queue length does an incoming req see
system.mem_ctrls2.rdQLenPdf::9                     47                       # What read queue length does an incoming req see
system.mem_ctrls2.rdQLenPdf::10                    45                       # What read queue length does an incoming req see
system.mem_ctrls2.rdQLenPdf::11                    44                       # What read queue length does an incoming req see
system.mem_ctrls2.rdQLenPdf::12                    45                       # What read queue length does an incoming req see
system.mem_ctrls2.rdQLenPdf::13                    47                       # What read queue length does an incoming req see
system.mem_ctrls2.rdQLenPdf::14                    44                       # What read queue length does an incoming req see
system.mem_ctrls2.rdQLenPdf::15                    48                       # What read queue length does an incoming req see
system.mem_ctrls2.rdQLenPdf::16                    42                       # What read queue length does an incoming req see
system.mem_ctrls2.rdQLenPdf::17                    37                       # What read queue length does an incoming req see
system.mem_ctrls2.rdQLenPdf::18                    29                       # What read queue length does an incoming req see
system.mem_ctrls2.rdQLenPdf::19                    37                       # What read queue length does an incoming req see
system.mem_ctrls2.rdQLenPdf::20                    27                       # What read queue length does an incoming req see
system.mem_ctrls2.rdQLenPdf::21                    38                       # What read queue length does an incoming req see
system.mem_ctrls2.rdQLenPdf::22                    27                       # What read queue length does an incoming req see
system.mem_ctrls2.rdQLenPdf::23                    26                       # What read queue length does an incoming req see
system.mem_ctrls2.rdQLenPdf::24                    25                       # What read queue length does an incoming req see
system.mem_ctrls2.rdQLenPdf::25                    28                       # What read queue length does an incoming req see
system.mem_ctrls2.rdQLenPdf::26                    22                       # What read queue length does an incoming req see
system.mem_ctrls2.rdQLenPdf::27                    21                       # What read queue length does an incoming req see
system.mem_ctrls2.rdQLenPdf::28                    24                       # What read queue length does an incoming req see
system.mem_ctrls2.rdQLenPdf::29                    29                       # What read queue length does an incoming req see
system.mem_ctrls2.rdQLenPdf::30                    26                       # What read queue length does an incoming req see
system.mem_ctrls2.rdQLenPdf::31                   300                       # What read queue length does an incoming req see
system.mem_ctrls2.wrQLenPdf::0                  11734                       # What write queue length does an incoming req see
system.mem_ctrls2.wrQLenPdf::1                  11898                       # What write queue length does an incoming req see
system.mem_ctrls2.wrQLenPdf::2                  11901                       # What write queue length does an incoming req see
system.mem_ctrls2.wrQLenPdf::3                  11869                       # What write queue length does an incoming req see
system.mem_ctrls2.wrQLenPdf::4                  11866                       # What write queue length does an incoming req see
system.mem_ctrls2.wrQLenPdf::5                    198                       # What write queue length does an incoming req see
system.mem_ctrls2.wrQLenPdf::6                    176                       # What write queue length does an incoming req see
system.mem_ctrls2.wrQLenPdf::7                    388                       # What write queue length does an incoming req see
system.mem_ctrls2.bytesPerActivate::samples        81137                       # Bytes accessed per row activation
system.mem_ctrls2.bytesPerActivate::mean   218.047401                       # Bytes accessed per row activation
system.mem_ctrls2.bytesPerActivate::gmean   139.447495                       # Bytes accessed per row activation
system.mem_ctrls2.bytesPerActivate::stdev   245.922159                       # Bytes accessed per row activation
system.mem_ctrls2.bytesPerActivate::0-127        38394     47.32%     47.32% # Bytes accessed per row activation
system.mem_ctrls2.bytesPerActivate::128-255        16715     20.60%     67.92% # Bytes accessed per row activation
system.mem_ctrls2.bytesPerActivate::256-383        14565     17.95%     85.87% # Bytes accessed per row activation
system.mem_ctrls2.bytesPerActivate::384-511         2600      3.20%     89.08% # Bytes accessed per row activation
system.mem_ctrls2.bytesPerActivate::512-639         1807      2.23%     91.30% # Bytes accessed per row activation
system.mem_ctrls2.bytesPerActivate::640-767         1355      1.67%     92.97% # Bytes accessed per row activation
system.mem_ctrls2.bytesPerActivate::768-895         1076      1.33%     94.30% # Bytes accessed per row activation
system.mem_ctrls2.bytesPerActivate::896-1023          905      1.12%     95.42% # Bytes accessed per row activation
system.mem_ctrls2.bytesPerActivate::1024-1151         3720      4.58%    100.00% # Bytes accessed per row activation
system.mem_ctrls2.bytesPerActivate::total        81137                       # Bytes accessed per row activation
system.mem_ctrls2.rdPerTurnAround::samples        11766                       # Reads before turning the bus around for writes
system.mem_ctrls2.rdPerTurnAround::mean     18.328914                       # Reads before turning the bus around for writes
system.mem_ctrls2.rdPerTurnAround::stdev    76.655861                       # Reads before turning the bus around for writes
system.mem_ctrls2.rdPerTurnAround::0-127        11410     96.97%     96.97% # Reads before turning the bus around for writes
system.mem_ctrls2.rdPerTurnAround::128-255          168      1.43%     98.40% # Reads before turning the bus around for writes
system.mem_ctrls2.rdPerTurnAround::256-383           88      0.75%     99.15% # Reads before turning the bus around for writes
system.mem_ctrls2.rdPerTurnAround::384-511           48      0.41%     99.56% # Reads before turning the bus around for writes
system.mem_ctrls2.rdPerTurnAround::512-639           23      0.20%     99.75% # Reads before turning the bus around for writes
system.mem_ctrls2.rdPerTurnAround::640-767           13      0.11%     99.86% # Reads before turning the bus around for writes
system.mem_ctrls2.rdPerTurnAround::768-895            2      0.02%     99.88% # Reads before turning the bus around for writes
system.mem_ctrls2.rdPerTurnAround::896-1023            6      0.05%     99.93% # Reads before turning the bus around for writes
system.mem_ctrls2.rdPerTurnAround::1152-1279            2      0.02%     99.95% # Reads before turning the bus around for writes
system.mem_ctrls2.rdPerTurnAround::1408-1535            1      0.01%     99.96% # Reads before turning the bus around for writes
system.mem_ctrls2.rdPerTurnAround::1536-1663            1      0.01%     99.97% # Reads before turning the bus around for writes
system.mem_ctrls2.rdPerTurnAround::1792-1919            2      0.02%     99.98% # Reads before turning the bus around for writes
system.mem_ctrls2.rdPerTurnAround::1920-2047            1      0.01%     99.99% # Reads before turning the bus around for writes
system.mem_ctrls2.rdPerTurnAround::2816-2943            1      0.01%    100.00% # Reads before turning the bus around for writes
system.mem_ctrls2.rdPerTurnAround::total        11766                       # Reads before turning the bus around for writes
system.mem_ctrls2.wrPerTurnAround::samples        11766                       # Writes before turning the bus around for reads
system.mem_ctrls2.wrPerTurnAround::mean      5.101989                       # Writes before turning the bus around for reads
system.mem_ctrls2.wrPerTurnAround::gmean     5.070849                       # Writes before turning the bus around for reads
system.mem_ctrls2.wrPerTurnAround::stdev     0.800107                       # Writes before turning the bus around for reads
system.mem_ctrls2.wrPerTurnAround::4-7          11660     99.10%     99.10% # Writes before turning the bus around for reads
system.mem_ctrls2.wrPerTurnAround::8-11            48      0.41%     99.51% # Writes before turning the bus around for reads
system.mem_ctrls2.wrPerTurnAround::12-15           15      0.13%     99.63% # Writes before turning the bus around for reads
system.mem_ctrls2.wrPerTurnAround::16-19           43      0.37%    100.00% # Writes before turning the bus around for reads
system.mem_ctrls2.wrPerTurnAround::total        11766                       # Writes before turning the bus around for reads
system.mem_ctrls2.totQLat                  2813975089                       # Total ticks spent queuing
system.mem_ctrls2.totMemAccLat             6871868839                       # Total ticks spent from burst creation until serviced by the DRAM
system.mem_ctrls2.totBusLat                1082105000                       # Total ticks spent in databus transfers
system.mem_ctrls2.avgQLat                    13002.32                       # Average queueing delay per DRAM burst
system.mem_ctrls2.avgBusLat                   5000.00                       # Average bus latency per DRAM burst
system.mem_ctrls2.avgMemAccLat               31752.32                       # Average memory access latency per DRAM burst
system.mem_ctrls2.avgRdBW                      231.81                       # Average DRAM read bandwidth in MiByte/s
system.mem_ctrls2.avgWrBW                       64.30                       # Average achieved write bandwidth in MiByte/s
system.mem_ctrls2.avgRdBWSys                   231.82                       # Average system read bandwidth in MiByte/s
system.mem_ctrls2.avgWrBWSys                    64.30                       # Average system write bandwidth in MiByte/s
system.mem_ctrls2.peakBW                     12800.00                       # Theoretical peak bandwidth in MiByte/s
system.mem_ctrls2.busUtil                        2.31                       # Data bus utilization in percentage
system.mem_ctrls2.busUtilRead                    1.81                       # Data bus utilization in percentage for reads
system.mem_ctrls2.busUtilWrite                   0.50                       # Data bus utilization in percentage for writes
system.mem_ctrls2.avgRdQLen                      1.10                       # Average read queue length when enqueuing
system.mem_ctrls2.avgWrQLen                      2.99                       # Average write queue length when enqueuing
system.mem_ctrls2.readRowHits                  156468                       # Number of row buffer hits during reads
system.mem_ctrls2.writeRowHits                  38837                       # Number of row buffer hits during writes
system.mem_ctrls2.readRowHitRate                72.30                       # Row buffer hit rate for reads
system.mem_ctrls2.writeRowHitRate               64.70                       # Row buffer hit rate for writes
system.mem_ctrls2.avgGap                    216125.23                       # Average gap between requests
system.mem_ctrls2.pageHitRate                   70.65                       # Row buffer hit rate, read and write combined
system.mem_ctrls2.memoryStateTime::IDLE   11119881000                       # Time in different power states
system.mem_ctrls2.memoryStateTime::REF     1994980000                       # Time in different power states
system.mem_ctrls2.memoryStateTime::PRE_PDN            0                       # Time in different power states
system.mem_ctrls2.memoryStateTime::ACT    46629309000                       # Time in different power states
system.mem_ctrls2.memoryStateTime::ACT_PDN            0                       # Time in different power states
system.mem_ctrls2.actEnergy::0              312530400                       # Energy for activate commands per rank (pJ)
system.mem_ctrls2.actEnergy::1              300857760                       # Energy for activate commands per rank (pJ)
system.mem_ctrls2.preEnergy::0              170527500                       # Energy for precharge commands per rank (pJ)
system.mem_ctrls2.preEnergy::1              164158500                       # Energy for precharge commands per rank (pJ)
system.mem_ctrls2.readEnergy::0             851619600                       # Energy for read commands per rank (pJ)
system.mem_ctrls2.readEnergy::1             836316000                       # Energy for read commands per rank (pJ)
system.mem_ctrls2.writeEnergy::0            197607600                       # Energy for write commands per rank (pJ)
system.mem_ctrls2.writeEnergy::1            191386800                       # Energy for write commands per rank (pJ)
system.mem_ctrls2.refreshEnergy::0         3902180880                       # Energy for refresh commands per rank (pJ)
system.mem_ctrls2.refreshEnergy::1         3902180880                       # Energy for refresh commands per rank (pJ)
system.mem_ctrls2.actBackEnergy::0        25293036645                       # Energy for active background per rank (pJ)
system.mem_ctrls2.actBackEnergy::1        24500277225                       # Energy for active background per rank (pJ)
system.mem_ctrls2.preBackEnergy::0        13659619500                       # Energy for precharge background per rank (pJ)
system.mem_ctrls2.preBackEnergy::1        14355022500                       # Energy for precharge background per rank (pJ)
system.mem_ctrls2.totalEnergy::0          44387122125                       # Total energy per rank (pJ)
system.mem_ctrls2.totalEnergy::1          44250199665                       # Total energy per rank (pJ)
system.mem_ctrls2.averagePower::0          742.953368                       # Core power per rank (mW)
system.mem_ctrls2.averagePower::1          740.661555                       # Core power per rank (mW)
system.mem_ctrls3.bytes_read::ruby.dir_cntrl3     13836928                       # Number of bytes read from this memory
system.mem_ctrls3.bytes_read::total          13836928                       # Number of bytes read from this memory
system.mem_ctrls3.bytes_written::ruby.dir_cntrl3      3838464                       # Number of bytes written to this memory
system.mem_ctrls3.bytes_written::total        3838464                       # Number of bytes written to this memory
system.mem_ctrls3.num_reads::ruby.dir_cntrl3       216202                       # Number of read requests responded to by this memory
system.mem_ctrls3.num_reads::total             216202                       # Number of read requests responded to by this memory
system.mem_ctrls3.num_writes::ruby.dir_cntrl3        59976                       # Number of write requests responded to by this memory
system.mem_ctrls3.num_writes::total             59976                       # Number of write requests responded to by this memory
system.mem_ctrls3.bw_read::ruby.dir_cntrl3    231575166                       # Total read bandwidth from this memory (bytes/s)
system.mem_ctrls3.bw_read::total            231575166                       # Total read bandwidth from this memory (bytes/s)
system.mem_ctrls3.bw_write::ruby.dir_cntrl3     64240628                       # Write bandwidth from this memory (bytes/s)
system.mem_ctrls3.bw_write::total            64240628                       # Write bandwidth from this memory (bytes/s)
system.mem_ctrls3.bw_total::ruby.dir_cntrl3    295815794                       # Total bandwidth to/from this memory (bytes/s)
system.mem_ctrls3.bw_total::total           295815794                       # Total bandwidth to/from this memory (bytes/s)
system.mem_ctrls3.readReqs                     216203                       # Number of read requests accepted
system.mem_ctrls3.writeReqs                     59976                       # Number of write requests accepted
system.mem_ctrls3.readBursts                   216203                       # Number of DRAM read bursts, including those serviced by the write queue
system.mem_ctrls3.writeBursts                   59976                       # Number of DRAM write bursts, including those merged in the write queue
system.mem_ctrls3.bytesReadDRAM              13836224                       # Total number of bytes read from DRAM
system.mem_ctrls3.bytesReadWrQ                    768                       # Total number of bytes read from write queue
system.mem_ctrls3.bytesWritten                3838400                       # Total number of bytes written to DRAM
system.mem_ctrls3.bytesReadSys               13836992                       # Total read bytes from the system interface side
system.mem_ctrls3.bytesWrittenSys             3838464                       # Total written bytes from the system interface side
system.mem_ctrls3.servicedByWrQ                    12                       # Number of DRAM read bursts serviced by the write queue
system.mem_ctrls3.mergedWrBursts                    0                       # Number of DRAM write bursts merged with an existing one
system.mem_ctrls3.neitherReadNorWriteReqs            0                       # Number of requests that are neither read nor write
system.mem_ctrls3.perBankRdBursts::0            13270                       # Per bank write bursts
system.mem_ctrls3.perBankRdBursts::1            13822                       # Per bank write bursts
system.mem_ctrls3.perBankRdBursts::2            13450                       # Per bank write bursts
system.mem_ctrls3.perBankRdBursts::3            13898                       # Per bank write bursts
system.mem_ctrls3.perBankRdBursts::4            13490                       # Per bank write bursts
system.mem_ctrls3.perBankRdBursts::5            14083                       # Per bank write bursts
system.mem_ctrls3.perBankRdBursts::6            13511                       # Per bank write bursts
system.mem_ctrls3.perBankRdBursts::7            13491                       # Per bank write bursts
system.mem_ctrls3.perBankRdBursts::8            13398                       # Per bank write bursts
system.mem_ctrls3.perBankRdBursts::9            13703                       # Per bank write bursts
system.mem_ctrls3.perBankRdBursts::10           13441                       # Per bank write bursts
system.mem_ctrls3.perBankRdBursts::11           13659                       # Per bank write bursts
system.mem_ctrls3.perBankRdBursts::12           13200                       # Per bank write bursts
system.mem_ctrls3.perBankRdBursts::13           13061                       # Per bank write bursts
system.mem_ctrls3.perBankRdBursts::14           13313                       # Per bank write bursts
system.mem_ctrls3.perBankRdBursts::15           13401                       # Per bank write bursts
system.mem_ctrls3.perBankWrBursts::0             3686                       # Per bank write bursts
system.mem_ctrls3.perBankWrBursts::1             3769                       # Per bank write bursts
system.mem_ctrls3.perBankWrBursts::2             3752                       # Per bank write bursts
system.mem_ctrls3.perBankWrBursts::3             3975                       # Per bank write bursts
system.mem_ctrls3.perBankWrBursts::4             3768                       # Per bank write bursts
system.mem_ctrls3.perBankWrBursts::5             3909                       # Per bank write bursts
system.mem_ctrls3.perBankWrBursts::6             3808                       # Per bank write bursts
system.mem_ctrls3.perBankWrBursts::7             3773                       # Per bank write bursts
system.mem_ctrls3.perBankWrBursts::8             3662                       # Per bank write bursts
system.mem_ctrls3.perBankWrBursts::9             3908                       # Per bank write bursts
system.mem_ctrls3.perBankWrBursts::10            3672                       # Per bank write bursts
system.mem_ctrls3.perBankWrBursts::11            3622                       # Per bank write bursts
system.mem_ctrls3.perBankWrBursts::12            3573                       # Per bank write bursts
system.mem_ctrls3.perBankWrBursts::13            3595                       # Per bank write bursts
system.mem_ctrls3.perBankWrBursts::14            3795                       # Per bank write bursts
system.mem_ctrls3.perBankWrBursts::15            3708                       # Per bank write bursts
system.mem_ctrls3.numRdRetry                      241                       # Number of times read queue was full causing retry
system.mem_ctrls3.numWrRetry                      224                       # Number of times write queue was full causing retry
system.mem_ctrls3.totGap                  59750601000                       # Total gap between requests
system.mem_ctrls3.readPktSize::0                    0                       # Read request sizes (log2)
system.mem_ctrls3.readPktSize::1                    0                       # Read request sizes (log2)
system.mem_ctrls3.readPktSize::2                    0                       # Read request sizes (log2)
system.mem_ctrls3.readPktSize::3                    0                       # Read request sizes (log2)
system.mem_ctrls3.readPktSize::4                    0                       # Read request sizes (log2)
system.mem_ctrls3.readPktSize::5                    0                       # Read request sizes (log2)
system.mem_ctrls3.readPktSize::6               216203                       # Read request sizes (log2)
system.mem_ctrls3.writePktSize::0                   0                       # Write request sizes (log2)
system.mem_ctrls3.writePktSize::1                   0                       # Write request sizes (log2)
[...]
system.ruby.L2Cache_Controller.IS.Mem_Data::total        13533                      
system.ruby.L2Cache_Controller.IM.Mem_Data |        6009      3.16%      3.16% |        5933      3.12%      6.28% |        5941      3.12%      9.40% |        5950      3.13%     12.53% |        5947      3.13%     15.66% |        5942      3.12%     18.78% |        5940      3.12%     21.90% |        5927      3.12%     25.02% |        5949      3.13%     28.15% |        5944      3.13%     31.27% |        5929      3.12%     34.39% |        5949      3.13%     37.52% |        5939      3.12%     40.64% |        5934      3.12%     43.76% |        5932      3.12%     46.88% |        5932      3.12%     50.00% |        5946      3.13%     53.13% |        5946      3.13%     56.25% |        5947      3.13%     59.38% |        5937      3.12%     62.50% |        5943      3.12%     65.62% |        5952      3.13%     68.75% |        5932      3.12%     71.87% |        5940      3.12%     75.00% |        5947      3.13%     78.12% |        5943      3.12%     81.25% |        5953      3.13%     84.38% |        5943      3.12%     87.50% |        5941      3.12%     90.63% |        5946      3.13%     93.75% |        5954      3.13%     96.88% |        5931      3.12%    100.00%
system.ruby.L2Cache_Controller.IM.Mem_Data::total       190198                      
system.ruby.L2Cache_Controller.SS_MB.Exclusive_Unblock |         212     81.23%     81.23% |           6      2.30%     83.52% |           3      1.15%     84.67% |           6      2.30%     86.97% |           0      0.00%     86.97% |           1      0.38%     87.36% |           1      0.38%     87.74% |           0      0.00%     87.74% |           0      0.00%     87.74% |           1      0.38%     88.12% |           0      0.00%     88.12% |           0      0.00%     88.12% |           5      1.92%     90.04% |           0      0.00%     90.04% |           2      0.77%     90.80% |           1      0.38%     91.19% |           0      0.00%     91.19% |           0      0.00%     91.19% |          10      3.83%     95.02% |           2      0.77%     95.79% |           0      0.00%     95.79% |           0      0.00%     95.79% |           0      0.00%     95.79% |           0      0.00%     95.79% |           1      0.38%     96.17% |           0      0.00%     96.17% |           2      0.77%     96.93% |           1      0.38%     97.32% |           4      1.53%     98.85% |           1      0.38%     99.23% |           1      0.38%     99.62% |           1      0.38%    100.00%
system.ruby.L2Cache_Controller.SS_MB.Exclusive_Unblock::total          261                      
system.ruby.L2Cache_Controller.MT_MB.L1_GETS |           0      0.00%      0.00% |           0      0.00%      0.00% |           0      0.00%      0.00% |           0      0.00%      0.00% |           0      0.00%      0.00% |           0      0.00%      0.00% |           0      0.00%      0.00% |           0      0.00%      0.00% |           0      0.00%      0.00% |           0      0.00%      0.00% |           0      0.00%      0.00% |           0      0.00%      0.00% |           0      0.00%      0.00% |           0      0.00%      0.00% |           0      0.00%      0.00% |           0      0.00%      0.00% |           0      0.00%      0.00% |           5     50.00%     50.00% |           5     50.00%    100.00% |           0      0.00%    100.00% |           0      0.00%    100.00% |           0      0.00%    100.00% |           0      0.00%    100.00% |           0      0.00%    100.00% |           0      0.00%    100.00% |           0      0.00%    100.00% |           0      0.00%    100.00% |           0      0.00%    100.00% |           0      0.00%    100.00% |           0      0.00%    100.00% |           0      0.00%    100.00% |           0      0.00%    100.00%
system.ruby.L2Cache_Controller.MT_MB.L1_GETS::total           10                      
system.ruby.L2Cache_Controller.MT_MB.Exclusive_Unblock |       77646      7.09%      7.09% |       33388      3.05%     10.14% |       32686      2.99%     13.13% |       32854      3.00%     16.13% |       33108      3.02%     19.15% |       32033      2.93%     22.07% |       31958      2.92%     24.99% |       31675      2.89%     27.89% |       33954      3.10%     30.99% |       32355      2.95%     33.94% |       34303      3.13%     37.07% |       33125      3.03%     40.10% |       32695      2.99%     43.09% |       31745      2.90%     45.98% |       31778      2.90%     48.89% |       31669      2.89%     51.78% |       34274      3.13%     54.91% |       32115      2.93%     57.84% |       32966      3.01%     60.85% |       32541      2.97%     63.82% |       33034      3.02%     66.84% |       32476      2.97%     69.81% |       33015      3.02%     72.82% |       32009      2.92%     75.75% |       33648      3.07%     78.82% |       32343      2.95%     81.77% |       32844      3.00%     84.77% |       31818      2.91%     87.68% |       33167      3.03%     90.71% |       31907      2.91%     93.62% |       34283      3.13%     96.75% |       35575      3.25%    100.00%
system.ruby.L2Cache_Controller.MT_MB.Exclusive_Unblock::total      1094987                      
system.ruby.L2Cache_Controller.MT_IIB.L1_GETS |           0      0.00%      0.00% |           1      6.25%      6.25% |           1      6.25%     12.50% |           0      0.00%     12.50% |           0      0.00%     12.50% |           0      0.00%     12.50% |           0      0.00%     12.50% |           0      0.00%     12.50% |           0      0.00%     12.50% |           0      0.00%     12.50% |           0      0.00%     12.50% |           0      0.00%     12.50% |           0      0.00%     12.50% |           0      0.00%     12.50% |           0      0.00%     12.50% |           0      0.00%     12.50% |           0      0.00%     12.50% |           5     31.25%     43.75% |           4     25.00%     68.75% |           5     31.25%    100.00% |           0      0.00%    100.00% |           0      0.00%    100.00% |           0      0.00%    100.00% |           0      0.00%    100.00% |           0      0.00%    100.00% |           0      0.00%    100.00% |           0      0.00%    100.00% |           0      0.00%    100.00% |           0      0.00%    100.00% |           0      0.00%    100.00% |           0      0.00%    100.00% |           0      0.00%    100.00%
system.ruby.L2Cache_Controller.MT_IIB.L1_GETS::total           16                      
system.ruby.L2Cache_Controller.MT_IIB.WB_Data |         177      7.63%      7.63% |          71      3.06%     10.69% |          69      2.98%     13.67% |          64      2.76%     16.43% |          69      2.98%     19.40% |          69      2.98%     22.38% |          69      2.98%     25.36% |          69      2.98%     28.33% |          69      2.98%     31.31% |          69      2.98%     34.28% |          69      2.98%     37.26% |          66      2.85%     40.10% |          73      3.15%     43.25% |          69      2.98%     46.23% |          69      2.98%     49.20% |          69      2.98%     52.18% |          69      2.98%     55.15% |          69      2.98%     58.13% |          70      3.02%     61.15% |          69      2.98%     64.12% |          69      2.98%     67.10% |          69      2.98%     70.07% |          71      3.06%     73.13% |          69      2.98%     76.11% |          69      2.98%     79.09% |          69      2.98%     82.06% |          69      2.98%     85.04% |          69      2.98%     88.01% |          71      3.06%     91.07% |          69      2.98%     94.05% |          69      2.98%     97.02% |          69      2.98%    100.00%
system.ruby.L2Cache_Controller.MT_IIB.WB_Data::total         2319                      
system.ruby.L2Cache_Controller.MT_IIB.WB_Data_clean |         593     96.27%     96.27% |           4      0.65%     96.92% |           3      0.49%     97.40% |           3      0.49%     97.89% |           0      0.00%     97.89% |           0      0.00%     97.89% |           0      0.00%     97.89% |           0      0.00%     97.89% |           0      0.00%     97.89% |           0      0.00%     97.89% |           0      0.00%     97.89% |           0      0.00%     97.89% |           0      0.00%     97.89% |           0      0.00%     97.89% |           1      0.16%     98.05% |           0      0.00%     98.05% |           1      0.16%     98.21% |           4      0.65%     98.86% |           4      0.65%     99.51% |           3      0.49%    100.00% |           0      0.00%    100.00% |           0      0.00%    100.00% |           0      0.00%    100.00% |           0      0.00%    100.00% |           0      0.00%    100.00% |           0      0.00%    100.00% |           0      0.00%    100.00% |           0      0.00%    100.00% |           0      0.00%    100.00% |           0      0.00%    100.00% |           0      0.00%    100.00% |           0      0.00%    100.00%
system.ruby.L2Cache_Controller.MT_IIB.WB_Data_clean::total          616                      
system.ruby.L2Cache_Controller.MT_IIB.Unblock |           0      0.00%      0.00% |           0      0.00%      0.00% |           0      0.00%      0.00% |           5     50.00%     50.00% |           0      0.00%     50.00% |           0      0.00%     50.00% |           0      0.00%     50.00% |           0      0.00%     50.00% |           0      0.00%     50.00% |           0      0.00%     50.00% |           0      0.00%     50.00% |           3     30.00%     80.00% |           0      0.00%     80.00% |           0      0.00%     80.00% |           0      0.00%     80.00% |           0      0.00%     80.00% |           0      0.00%     80.00% |           0      0.00%     80.00% |           0      0.00%     80.00% |           1     10.00%     90.00% |           0      0.00%     90.00% |           0      0.00%     90.00% |           0      0.00%     90.00% |           0      0.00%     90.00% |           0      0.00%     90.00% |           1     10.00%    100.00% |           0      0.00%    100.00% |           0      0.00%    100.00% |           0      0.00%    100.00% |           0      0.00%    100.00% |           0      0.00%    100.00% |           0      0.00%    100.00%
system.ruby.L2Cache_Controller.MT_IIB.Unblock::total           10                      
system.ruby.L2Cache_Controller.MT_IB.WB_Data |           0      0.00%      0.00% |           0      0.00%      0.00% |           0      0.00%      0.00% |           5     50.00%     50.00% |           0      0.00%     50.00% |           0      0.00%     50.00% |           0      0.00%     50.00% |           0      0.00%     50.00% |           0      0.00%     50.00% |           0      0.00%     50.00% |           0      0.00%     50.00% |           3     30.00%     80.00% |           0      0.00%     80.00% |           0      0.00%     80.00% |           0      0.00%     80.00% |           0      0.00%     80.00% |           0      0.00%     80.00% |           0      0.00%     80.00% |           0      0.00%     80.00% |           1     10.00%     90.00% |           0      0.00%     90.00% |           0      0.00%     90.00% |           0      0.00%     90.00% |           0      0.00%     90.00% |           0      0.00%     90.00% |           1     10.00%    100.00% |           0      0.00%    100.00% |           0      0.00%    100.00% |           0      0.00%    100.00% |           0      0.00%    100.00% |           0      0.00%    100.00% |           0      0.00%    100.00%
system.ruby.L2Cache_Controller.MT_IB.WB_Data::total           10                      
system.ruby.L2Cache_Controller.MT_SB.L1_GETS |           0      0.00%      0.00% |           1     33.33%     33.33% |           1     33.33%     66.67% |           1     33.33%    100.00% |           0      0.00%    100.00% |           0      0.00%    100.00% |           0      0.00%    100.00% |           0      0.00%    100.00% |           0      0.00%    100.00% |           0      0.00%    100.00% |           0      0.00%    100.00% |           0      0.00%    100.00% |           0      0.00%    100.00% |           0      0.00%    100.00% |           0      0.00%    100.00% |           0      0.00%    100.00% |           0      0.00%    100.00% |           0      0.00%    100.00% |           0      0.00%    100.00% |           0      0.00%    100.00% |           0      0.00%    100.00% |           0      0.00%    100.00% |           0      0.00%    100.00% |           0      0.00%    100.00% |           0      0.00%    100.00% |           0      0.00%    100.00% |           0      0.00%    100.00% |           0      0.00%    100.00% |           0      0.00%    100.00% |           0      0.00%    100.00% |           0      0.00%    100.00% |           0      0.00%    100.00%
system.ruby.L2Cache_Controller.MT_SB.L1_GETS::total            3                      
system.ruby.L2Cache_Controller.MT_SB.Unblock |         770     26.24%     26.24% |          75      2.56%     28.79% |          72      2.45%     31.24% |          67      2.28%     33.53% |          69      2.35%     35.88% |          69      2.35%     38.23% |          69      2.35%     40.58% |          69      2.35%     42.93% |          69      2.35%     45.28% |          69      2.35%     47.63% |          69      2.35%     49.98% |          66      2.25%     52.23% |          73      2.49%     54.72% |          69      2.35%     57.07% |          70      2.39%     59.45% |          69      2.35%     61.81% |          70      2.39%     64.19% |          73      2.49%     66.68% |          74      2.52%     69.20% |          72      2.45%     71.65% |          69      2.35%     74.00% |          69      2.35%     76.35% |          71      2.42%     78.77% |          69      2.35%     81.12% |          69      2.35%     83.48% |          69      2.35%     85.83% |          69      2.35%     88.18% |          69      2.35%     90.53% |          71      2.42%     92.95% |          69      2.35%     95.30% |          69      2.35%     97.65% |          69      2.35%    100.00%
system.ruby.L2Cache_Controller.MT_SB.Unblock::total         2935                      
system.ruby.SimicsNetworkPortInterface_Controller.MessageSend |       84723      4.66%      4.66% |      908366     50.00%     54.66% |      114248      6.29%     60.95% |      103753      5.71%     66.66% |      101889      5.61%     72.27% |      102962      5.67%     77.94% |      101216      5.57%     83.51% |      103874      5.72%     89.23% |       97517      5.37%     94.60% |       98184      5.40%    100.00% |           0      0.00%    100.00% |           0      0.00%    100.00% |           0      0.00%    100.00% |           0      0.00%    100.00% |           0      0.00%    100.00% |           0      0.00%    100.00% |           0      0.00%    100.00% |           0      0.00%    100.00% |           0      0.00%    100.00% |           0      0.00%    100.00% |           0      0.00%    100.00% |           0      0.00%    100.00% |           0      0.00%    100.00% |           0      0.00%    100.00% |           0      0.00%    100.00% |           0      0.00%    100.00% |           0      0.00%    100.00% |           0      0.00%    100.00% |           0      0.00%    100.00% |           0      0.00%    100.00% |           0      0.00%    100.00% |           0      0.00%    100.00%
system.ruby.SimicsNetworkPortInterface_Controller.MessageSend::total      1816732                      
system.ruby.SimicsNetworkPortInterface_Controller.MessageRecv |       84723      4.66%      4.66% |      908366     50.00%     54.66% |      114248      6.29%     60.95% |      103753      5.71%     66.66% |      101889      5.61%     72.27% |      102962      5.67%     77.94% |      101216      5.57%     83.51% |      103874      5.72%     89.23% |       97517      5.37%     94.60% |       98184      5.40%    100.00% |           0      0.00%    100.00% |           0      0.00%    100.00% |           0      0.00%    100.00% |           0      0.00%    100.00% |           0      0.00%    100.00% |           0      0.00%    100.00% |           0      0.00%    100.00% |           0      0.00%    100.00% |           0      0.00%    100.00% |           0      0.00%    100.00% |           0      0.00%    100.00% |           0      0.00%    100.00% |           0      0.00%    100.00% |           0      0.00%    100.00% |           0      0.00%    100.00% |           0      0.00%    100.00% |           0      0.00%    100.00% |           0      0.00%    100.00% |           0      0.00%    100.00% |           0      0.00%    100.00% |           0      0.00%    100.00% |           0      0.00%    100.00%
system.ruby.SimicsNetworkPortInterface_Controller.MessageRecv::total      1816732                      
system.ruby.SimicsNetworkPortInterface_Controller.A.MessageSend |       84723      4.66%      4.66% |      908366     50.00%     54.66% |      114248      6.29%     60.95% |      103753      5.71%     66.66% |      101889      5.61%     72.27% |      102962      5.67%     77.94% |      101216      5.57%     83.51% |      103874      5.72%     89.23% |       97517      5.37%     94.60% |       98184      5.40%    100.00% |           0      0.00%    100.00% |           0      0.00%    100.00% |           0      0.00%    100.00% |           0      0.00%    100.00% |           0      0.00%    100.00% |           0      0.00%    100.00% |           0      0.00%    100.00% |           0      0.00%    100.00% |           0      0.00%    100.00% |           0      0.00%    100.00% |           0      0.00%    100.00% |           0      0.00%    100.00% |           0      0.00%    100.00% |           0      0.00%    100.00% |           0      0.00%    100.00% |           0      0.00%    100.00% |           0      0.00%    100.00% |           0      0.00%    100.00% |           0      0.00%    100.00% |           0      0.00%    100.00% |           0      0.00%    100.00% |           0      0.00%    100.00%
system.ruby.SimicsNetworkPortInterface_Controller.A.MessageSend::total      1816732                      
system.ruby.SimicsNetworkPortInterface_Controller.A.MessageRecv |       84723      4.66%      4.66% |      908366     50.00%     54.66% |      114248      6.29%     60.95% |      103753      5.71%     66.66% |      101889      5.61%     72.27% |      102962      5.67%     77.94% |      101216      5.57%     83.51% |      103874      5.72%     89.23% |       97517      5.37%     94.60% |       98184      5.40%    100.00% |           0      0.00%    100.00% |           0      0.00%    100.00% |           0      0.00%    100.00% |           0      0.00%    100.00% |           0      0.00%    100.00% |           0      0.00%    100.00% |           0      0.00%    100.00% |           0      0.00%    100.00% |           0      0.00%    100.00% |           0      0.00%    100.00% |           0      0.00%    100.00% |           0      0.00%    100.00% |           0      0.00%    100.00% |           0      0.00%    100.00% |           0      0.00%    100.00% |           0      0.00%    100.00% |           0      0.00%    100.00% |           0      0.00%    100.00% |           0      0.00%    100.00% |           0      0.00%    100.00% |           0      0.00%    100.00% |           0      0.00%    100.00%
system.ruby.SimicsNetworkPortInterface_Controller.A.MessageRecv::total      1816732                      
system.switch_cpus.kern.inst.arm                    0                       # number of arm instructions executed
system.switch_cpus.kern.inst.quiesce                0                       # number of quiesce instructions executed

---------- End Simulation Statistics   ----------
