
---------- Begin Simulation Statistics ----------
sim_seconds                                  0.153822                       # Number of seconds simulated
sim_ticks                                153822205000                       # Number of ticks simulated
final_tick                               5329990283500                       # Number of ticks from beginning of simulation (restored from checkpoints and never reset)
sim_freq                                 1000000000000                       # Frequency of simulated ticks
host_inst_rate                                  40478                       # Simulator instruction rate (inst/s)
host_op_rate                                    77073                       # Simulator op (including micro ops) rate (op/s)
host_tick_rate                               96428982                       # Simulator tick rate (ticks/s)
host_mem_usage                                4031968                       # Number of bytes of host memory used
host_seconds                                  1595.19                       # Real time elapsed on the host
sim_insts                                    64570576                       # Number of instructions simulated
sim_ops                                     122946559                       # Number of ops (including micro ops) simulated
system.voltage_domain.voltage                       1                       # Voltage in Volts
system.clk_domain.clock                           500                       # Clock period in ticks
system.mem_ctrls0.bytes_read::ruby.dir_cntrl0     25269632                       # Number of bytes read from this memory
system.mem_ctrls0.bytes_read::total          25269632                       # Number of bytes read from this memory
system.mem_ctrls0.bytes_written::ruby.dir_cntrl0     21423360                       # Number of bytes written to this memory
system.mem_ctrls0.bytes_written::total       21423360                       # Number of bytes written to this memory
system.mem_ctrls0.num_reads::ruby.dir_cntrl0       394838                       # Number of read requests responded to by this memory
system.mem_ctrls0.num_reads::total             394838                       # Number of read requests responded to by this memory
system.mem_ctrls0.num_writes::ruby.dir_cntrl0       334740                       # Number of write requests responded to by this memory
system.mem_ctrls0.num_writes::total            334740                       # Number of write requests responded to by this memory
system.mem_ctrls0.bw_read::ruby.dir_cntrl0    164278181                       # Total read bandwidth from this memory (bytes/s)
system.mem_ctrls0.bw_read::total            164278181                       # Total read bandwidth from this memory (bytes/s)
system.mem_ctrls0.bw_write::ruby.dir_cntrl0    139273520                       # Write bandwidth from this memory (bytes/s)
system.mem_ctrls0.bw_write::total           139273520                       # Write bandwidth from this memory (bytes/s)
system.mem_ctrls0.bw_total::ruby.dir_cntrl0    303551701                       # Total bandwidth to/from this memory (bytes/s)
system.mem_ctrls0.bw_total::total           303551701                       # Total bandwidth to/from this memory (bytes/s)
system.mem_ctrls0.readReqs                     394839                       # Number of read requests accepted
system.mem_ctrls0.writeReqs                    334740                       # Number of write requests accepted
system.mem_ctrls0.readBursts                   394839                       # Number of DRAM read bursts, including those serviced by the write queue
system.mem_ctrls0.writeBursts                  334740                       # Number of DRAM write bursts, including those merged in the write queue
system.mem_ctrls0.bytesReadDRAM              25268608                       # Total number of bytes read from DRAM
system.mem_ctrls0.bytesReadWrQ                   1088                       # Total number of bytes read from write queue
system.mem_ctrls0.bytesWritten               21423232                       # Total number of bytes written to DRAM
system.mem_ctrls0.bytesReadSys               25269696                       # Total read bytes from the system interface side
system.mem_ctrls0.bytesWrittenSys            21423360                       # Total written bytes from the system interface side
system.mem_ctrls0.servicedByWrQ                    17                       # Number of DRAM read bursts serviced by the write queue
system.mem_ctrls0.mergedWrBursts                    0                       # Number of DRAM write bursts merged with an existing one
system.mem_ctrls0.neitherReadNorWriteReqs            0                       # Number of requests that are neither read nor write
system.mem_ctrls0.perBankRdBursts::0            24364                       # Per bank write bursts
system.mem_ctrls0.perBankRdBursts::1            25076                       # Per bank write bursts
system.mem_ctrls0.perBankRdBursts::2            24641                       # Per bank write bursts
system.mem_ctrls0.perBankRdBursts::3            24952                       # Per bank write bursts
system.mem_ctrls0.perBankRdBursts::4            24587                       # Per bank write bursts
system.mem_ctrls0.perBankRdBursts::5            24927                       # Per bank write bursts
system.mem_ctrls0.perBankRdBursts::6            24975                       # Per bank write bursts
system.mem_ctrls0.perBankRdBursts::7            24753                       # Per bank write bursts
system.mem_ctrls0.perBankRdBursts::8            24656                       # Per bank write bursts
system.mem_ctrls0.perBankRdBursts::9            24786                       # Per bank write bursts
system.mem_ctrls0.perBankRdBursts::10           24574                       # Per bank write bursts
system.mem_ctrls0.perBankRdBursts::11           25070                       # Per bank write bursts
system.mem_ctrls0.perBankRdBursts::12           24325                       # Per bank write bursts
system.mem_ctrls0.perBankRdBursts::13           24249                       # Per bank write bursts
system.mem_ctrls0.perBankRdBursts::14           24412                       # Per bank write bursts
system.mem_ctrls0.perBankRdBursts::15           24475                       # Per bank write bursts
system.mem_ctrls0.perBankWrBursts::0            20943                       # Per bank write bursts
system.mem_ctrls0.perBankWrBursts::1            20835                       # Per bank write bursts
system.mem_ctrls0.perBankWrBursts::2            20847                       # Per bank write bursts
system.mem_ctrls0.perBankWrBursts::3            21141                       # Per bank write bursts
system.mem_ctrls0.perBankWrBursts::4            20754                       # Per bank write bursts
system.mem_ctrls0.perBankWrBursts::5            21050                       # Per bank write bursts
system.mem_ctrls0.perBankWrBursts::6            21073                       # Per bank write bursts
system.mem_ctrls0.perBankWrBursts::7            21021                       # Per bank write bursts
system.mem_ctrls0.perBankWrBursts::8            21137                       # Per bank write bursts
system.mem_ctrls0.perBankWrBursts::9            20919                       # Per bank write bursts
system.mem_ctrls0.perBankWrBursts::10           20833                       # Per bank write bursts
system.mem_ctrls0.perBankWrBursts::11           20869                       # Per bank write bursts
system.mem_ctrls0.perBankWrBursts::12           20650                       # Per bank write bursts
system.mem_ctrls0.perBankWrBursts::13           20921                       # Per bank write bursts
system.mem_ctrls0.perBankWrBursts::14           20927                       # Per bank write bursts
system.mem_ctrls0.perBankWrBursts::15           20818                       # Per bank write bursts
system.mem_ctrls0.numRdRetry                   134711                       # Number of times read queue was full causing retry
system.mem_ctrls0.numWrRetry                    16196                       # Number of times write queue was full causing retry
system.mem_ctrls0.totGap                 153821941500                       # Total gap between requests
system.mem_ctrls0.readPktSize::0                    0                       # Read request sizes (log2)
system.mem_ctrls0.readPktSize::1                    0                       # Read request sizes (log2)
system.mem_ctrls0.readPktSize::2                    0                       # Read request sizes (log2)
system.mem_ctrls0.readPktSize::3                    0                       # Read request sizes (log2)
system.mem_ctrls0.readPktSize::4                    0                       # Read request sizes (log2)
system.mem_ctrls0.readPktSize::5                    0                       # Read request sizes (log2)
system.mem_ctrls0.readPktSize::6               394839                       # Read request sizes (log2)
system.mem_ctrls0.writePktSize::0                   0                       # Write request sizes (log2)
system.mem_ctrls0.writePktSize::1                   0                       # Write request sizes (log2)
system.mem_ctrls0.writePktSize::2                   0                       # Write request sizes (log2)
system.mem_ctrls0.writePktSize::3                   0                       # Write request sizes (log2)
system.mem_ctrls0.writePktSize::4                   0                       # Write request sizes (log2)
system.mem_ctrls0.writePktSize::5                   0                       # Write request sizes (log2)
system.mem_ctrls0.writePktSize::6              334740                       # Write request sizes (log2)
system.mem_ctrls0.rdQLenPdf::0                 204785                       # What read queue length does an incoming req see
system.mem_ctrls0.rdQLenPdf::1                   5939                       # What read queue length does an incoming req see
system.mem_ctrls0.rdQLenPdf::2                   3285                       # What read queue length does an incoming req see
system.mem_ctrls0.rdQLenPdf::3                    700                       # What read queue length does an incoming req see
system.mem_ctrls0.rdQLenPdf::4                    812                       # What read queue length does an incoming req see
system.mem_ctrls0.rdQLenPdf::5                    895                       # What read queue length does an incoming req see
system.mem_ctrls0.rdQLenPdf::6                    946                       # What read queue length does an incoming req see
system.mem_ctrls0.rdQLenPdf::7                   1009                       # What read queue length does an incoming req see
system.mem_ctrls0.rdQLenPdf::8                   1037                       # What read queue length does an incoming req see
system.mem_ctrls0.rdQLenPdf::9                   1059                       # What read queue length does an incoming req see
system.mem_ctrls0.rdQLenPdf::10                  1069                       # What read queue length does an incoming req see
system.mem_ctrls0.rdQLenPdf::11                  1092                       # What read queue length does an incoming req see
system.mem_ctrls0.rdQLenPdf::12                  1142                       # What read queue length does an incoming req see
system.mem_ctrls0.rdQLenPdf::13                  1152                       # What read queue length does an incoming req see
system.mem_ctrls0.rdQLenPdf::14                  1218                       # What read queue length does an incoming req see
system.mem_ctrls0.rdQLenPdf::15                  1237                       # What read queue length does an incoming req see
system.mem_ctrls0.rdQLenPdf::16                  1295                       # What read queue length does an incoming req see
system.mem_ctrls0.rdQLenPdf::17                  1334                       # What read queue length does an incoming req see
system.mem_ctrls0.rdQLenPdf::18                  1346                       # What read queue length does an incoming req see
system.mem_ctrls0.rdQLenPdf::19                  1382                       # What read queue length does an incoming req see
system.mem_ctrls0.rdQLenPdf::20                  1436                       # What read queue length does an incoming req see
system.mem_ctrls0.rdQLenPdf::21                  1469                       # What read queue length does an incoming req see
system.mem_ctrls0.rdQLenPdf::22                  1459                       # What read queue length does an incoming req see
system.mem_ctrls0.rdQLenPdf::23                  1483                       # What read queue length does an incoming req see
system.mem_ctrls0.rdQLenPdf::24                  1547                       # What read queue length does an incoming req see
system.mem_ctrls0.rdQLenPdf::25                  1731                       # What read queue length does an incoming req see
system.mem_ctrls0.rdQLenPdf::26                  1934                       # What read queue length does an incoming req see
system.mem_ctrls0.rdQLenPdf::27                  2077                       # What read queue length does an incoming req see
system.mem_ctrls0.rdQLenPdf::28                  2228                       # What read queue length does an incoming req see
system.mem_ctrls0.rdQLenPdf::29                  2621                       # What read queue length does an incoming req see
system.mem_ctrls0.rdQLenPdf::30                  3477                       # What read queue length does an incoming req see
system.mem_ctrls0.rdQLenPdf::31                140626                       # What read queue length does an incoming req see
system.mem_ctrls0.wrQLenPdf::0                  48433                       # What write queue length does an incoming req see
system.mem_ctrls0.wrQLenPdf::1                  50950                       # What write queue length does an incoming req see
system.mem_ctrls0.wrQLenPdf::2                  52447                       # What write queue length does an incoming req see
system.mem_ctrls0.wrQLenPdf::3                  52794                       # What write queue length does an incoming req see
system.mem_ctrls0.wrQLenPdf::4                  54173                       # What write queue length does an incoming req see
system.mem_ctrls0.wrQLenPdf::5                  16605                       # What write queue length does an incoming req see
system.mem_ctrls0.wrQLenPdf::6                  22152                       # What write queue length does an incoming req see
system.mem_ctrls0.wrQLenPdf::7                  37186                       # What write queue length does an incoming req see
system.mem_ctrls0.bytesPerActivate::samples       215215                       # Bytes accessed per row activation
system.mem_ctrls0.bytesPerActivate::mean   216.949636                       # Bytes accessed per row activation
system.mem_ctrls0.bytesPerActivate::gmean   164.771682                       # Bytes accessed per row activation
system.mem_ctrls0.bytesPerActivate::stdev   166.733721                       # Bytes accessed per row activation
system.mem_ctrls0.bytesPerActivate::0-127        68279     31.73%     31.73% # Bytes accessed per row activation
system.mem_ctrls0.bytesPerActivate::128-255        54047     25.11%     56.84% # Bytes accessed per row activation
system.mem_ctrls0.bytesPerActivate::256-383        69923     32.49%     89.33% # Bytes accessed per row activation
system.mem_ctrls0.bytesPerActivate::384-511        10246      4.76%     94.09% # Bytes accessed per row activation
system.mem_ctrls0.bytesPerActivate::512-639         5804      2.70%     96.79% # Bytes accessed per row activation
system.mem_ctrls0.bytesPerActivate::640-767         2871      1.33%     98.12% # Bytes accessed per row activation
system.mem_ctrls0.bytesPerActivate::768-895         1509      0.70%     98.82% # Bytes accessed per row activation
system.mem_ctrls0.bytesPerActivate::896-1023          994      0.46%     99.28% # Bytes accessed per row activation
system.mem_ctrls0.bytesPerActivate::1024-1151         1542      0.72%    100.00% # Bytes accessed per row activation
system.mem_ctrls0.bytesPerActivate::total       215215                       # Bytes accessed per row activation
system.mem_ctrls0.rdPerTurnAround::samples        49949                       # Reads before turning the bus around for writes
system.mem_ctrls0.rdPerTurnAround::mean      7.904322                       # Reads before turning the bus around for writes
system.mem_ctrls0.rdPerTurnAround::stdev    18.975040                       # Reads before turning the bus around for writes
system.mem_ctrls0.rdPerTurnAround::0-127        49941     99.98%     99.98% # Reads before turning the bus around for writes
system.mem_ctrls0.rdPerTurnAround::128-255            7      0.01%    100.00% # Reads before turning the bus around for writes
system.mem_ctrls0.rdPerTurnAround::3968-4095            1      0.00%    100.00% # Reads before turning the bus around for writes
system.mem_ctrls0.rdPerTurnAround::total        49949                       # Reads before turning the bus around for writes
system.mem_ctrls0.wrPerTurnAround::samples        49949                       # Writes before turning the bus around for reads
system.mem_ctrls0.wrPerTurnAround::mean      6.701596                       # Writes before turning the bus around for reads
system.mem_ctrls0.wrPerTurnAround::gmean     6.087998                       # Writes before turning the bus around for reads
system.mem_ctrls0.wrPerTurnAround::stdev     3.537666                       # Writes before turning the bus around for reads
system.mem_ctrls0.wrPerTurnAround::4-7          40273     80.63%     80.63% # Writes before turning the bus around for reads
system.mem_ctrls0.wrPerTurnAround::8-11          1831      3.67%     84.29% # Writes before turning the bus around for reads
system.mem_ctrls0.wrPerTurnAround::12-15         5100     10.21%     94.50% # Writes before turning the bus around for reads
system.mem_ctrls0.wrPerTurnAround::16-19         2745      5.50%    100.00% # Writes before turning the bus around for reads
system.mem_ctrls0.wrPerTurnAround::total        49949                       # Writes before turning the bus around for reads
system.mem_ctrls0.totQLat                 65918243555                       # Total ticks spent queuing
system.mem_ctrls0.totMemAccLat            73321156055                       # Total ticks spent from burst creation until serviced by the DRAM
system.mem_ctrls0.totBusLat                1974110000                       # Total ticks spent in databus transfers
system.mem_ctrls0.avgQLat                   166956.87                       # Average queueing delay per DRAM burst
system.mem_ctrls0.avgBusLat                   5000.00                       # Average bus latency per DRAM burst
system.mem_ctrls0.avgMemAccLat              185706.87                       # Average memory access latency per DRAM burst
system.mem_ctrls0.avgRdBW                      164.27                       # Average DRAM read bandwidth in MiByte/s
system.mem_ctrls0.avgWrBW                      139.27                       # Average achieved write bandwidth in MiByte/s
system.mem_ctrls0.avgRdBWSys                   164.28                       # Average system read bandwidth in MiByte/s
system.mem_ctrls0.avgWrBWSys                   139.27                       # Average system write bandwidth in MiByte/s
system.mem_ctrls0.peakBW                     12800.00                       # Theoretical peak bandwidth in MiByte/s
system.mem_ctrls0.busUtil                        2.37                       # Data bus utilization in percentage
system.mem_ctrls0.busUtilRead                    1.28                       # Data bus utilization in percentage for reads
system.mem_ctrls0.busUtilWrite                   1.09                       # Data bus utilization in percentage for writes
system.mem_ctrls0.avgRdQLen                      1.44                       # Average read queue length when enqueuing
system.mem_ctrls0.avgWrQLen                      2.99                       # Average write queue length when enqueuing
system.mem_ctrls0.readRowHits                  295206                       # Number of row buffer hits during reads
system.mem_ctrls0.writeRowHits                 219126                       # Number of row buffer hits during writes
system.mem_ctrls0.readRowHitRate                74.77                       # Row buffer hit rate for reads
system.mem_ctrls0.writeRowHitRate               65.46                       # Row buffer hit rate for writes
system.mem_ctrls0.avgGap                    210836.58                       # Average gap between requests
system.mem_ctrls0.pageHitRate                   70.50                       # Row buffer hit rate, read and write combined
system.mem_ctrls0.memoryStateTime::IDLE   26567559000                       # Time in different power states
system.mem_ctrls0.memoryStateTime::REF     5136300000                       # Time in different power states
system.mem_ctrls0.memoryStateTime::PRE_PDN            0                       # Time in different power states
system.mem_ctrls0.memoryStateTime::ACT   122113783500                       # Time in different power states
system.mem_ctrls0.memoryStateTime::ACT_PDN            0                       # Time in different power states
system.mem_ctrls0.actEnergy::0              817787880                       # Energy for activate commands per rank (pJ)
system.mem_ctrls0.actEnergy::1              809124120                       # Energy for activate commands per rank (pJ)
system.mem_ctrls0.preEnergy::0              446213625                       # Energy for precharge commands per rank (pJ)
system.mem_ctrls0.preEnergy::1              441486375                       # Energy for precharge commands per rank (pJ)
system.mem_ctrls0.readEnergy::0            1546373400                       # Energy for read commands per rank (pJ)
system.mem_ctrls0.readEnergy::1            1532973000                       # Energy for read commands per rank (pJ)
system.mem_ctrls0.writeEnergy::0           1086449760                       # Energy for write commands per rank (pJ)
system.mem_ctrls0.writeEnergy::1           1082496960                       # Energy for write commands per rank (pJ)
system.mem_ctrls0.refreshEnergy::0        10046602800                       # Energy for refresh commands per rank (pJ)
system.mem_ctrls0.refreshEnergy::1        10046602800                       # Energy for refresh commands per rank (pJ)
system.mem_ctrls0.actBackEnergy::0        61116313995                       # Energy for active background per rank (pJ)
system.mem_ctrls0.actBackEnergy::1        60859141110                       # Energy for active background per rank (pJ)
system.mem_ctrls0.preBackEnergy::0        38679775500                       # Energy for precharge background per rank (pJ)
system.mem_ctrls0.preBackEnergy::1        38905365750                       # Energy for precharge background per rank (pJ)
system.mem_ctrls0.totalEnergy::0         113739516960                       # Total energy per rank (pJ)
system.mem_ctrls0.totalEnergy::1         113677190115                       # Total energy per rank (pJ)
system.mem_ctrls0.averagePower::0          739.443963                       # Core power per rank (mW)
system.mem_ctrls0.averagePower::1          739.038763                       # Core power per rank (mW)
system.mem_ctrls1.bytes_read::ruby.dir_cntrl1     24509312                       # Number of bytes read from this memory
system.mem_ctrls1.bytes_read::total          24509312                       # Number of bytes read from this memory
system.mem_ctrls1.bytes_written::ruby.dir_cntrl1     20685504                       # Number of bytes written to this memory
system.mem_ctrls1.bytes_written::total       20685504                       # Number of bytes written to this memory
system.mem_ctrls1.num_reads::ruby.dir_cntrl1       382958                       # Number of read requests responded to by this memory
system.mem_ctrls1.num_reads::total             382958                       # Number of read requests responded to by this memory
system.mem_ctrls1.num_writes::ruby.dir_cntrl1       323211                       # Number of write requests responded to by this memory
system.mem_ctrls1.num_writes::total            323211                       # Number of write requests responded to by this memory
system.mem_ctrls1.bw_read::ruby.dir_cntrl1    159335331                       # Total read bandwidth from this memory (bytes/s)
system.mem_ctrls1.bw_read::total            159335331                       # Total read bandwidth from this memory (bytes/s)
system.mem_ctrls1.bw_write::ruby.dir_cntrl1    134476710                       # Write bandwidth from this memory (bytes/s)
system.mem_ctrls1.bw_write::total           134476710                       # Write bandwidth from this memory (bytes/s)
system.mem_ctrls1.bw_total::ruby.dir_cntrl1    293812041                       # Total bandwidth to/from this memory (bytes/s)
system.mem_ctrls1.bw_total::total           293812041                       # Total bandwidth to/from this memory (bytes/s)
system.mem_ctrls1.readReqs                     382958                       # Number of read requests accepted
system.mem_ctrls1.writeReqs                    323211                       # Number of write requests accepted
system.mem_ctrls1.readBursts                   382958                       # Number of DRAM read bursts, including those serviced by the write queue
system.mem_ctrls1.writeBursts                  323211                       # Number of DRAM write bursts, including those merged in the write queue
system.mem_ctrls1.bytesReadDRAM              24508224                       # Total number of bytes read from DRAM
system.mem_ctrls1.bytesReadWrQ                   1088                       # Total number of bytes read from write queue
system.mem_ctrls1.bytesWritten               20685248                       # Total number of bytes written to DRAM
system.mem_ctrls1.bytesReadSys               24509312                       # Total read bytes from the system interface side
system.mem_ctrls1.bytesWrittenSys            20685504                       # Total written bytes from the system interface side
system.mem_ctrls1.servicedByWrQ                    17                       # Number of DRAM read bursts serviced by the write queue
system.mem_ctrls1.mergedWrBursts                    0                       # Number of DRAM write bursts merged with an existing one
system.mem_ctrls1.neitherReadNorWriteReqs            0                       # Number of requests that are neither read nor write
system.mem_ctrls1.perBankRdBursts::0            23653                       # Per bank write bursts
system.mem_ctrls1.perBankRdBursts::1            24327                       # Per bank write bursts
system.mem_ctrls1.perBankRdBursts::2            23891                       # Per bank write bursts
system.mem_ctrls1.perBankRdBursts::3            24204                       # Per bank write bursts
system.mem_ctrls1.perBankRdBursts::4            23868                       # Per bank write bursts
system.mem_ctrls1.perBankRdBursts::5            24186                       # Per bank write bursts
system.mem_ctrls1.perBankRdBursts::6            24226                       # Per bank write bursts
system.mem_ctrls1.perBankRdBursts::7            24042                       # Per bank write bursts
system.mem_ctrls1.perBankRdBursts::8            23916                       # Per bank write bursts
system.mem_ctrls1.perBankRdBursts::9            24038                       # Per bank write bursts
system.mem_ctrls1.perBankRdBursts::10           23807                       # Per bank write bursts
system.mem_ctrls1.perBankRdBursts::11           24347                       # Per bank write bursts
system.mem_ctrls1.perBankRdBursts::12           23594                       # Per bank write bursts
system.mem_ctrls1.perBankRdBursts::13           23492                       # Per bank write bursts
system.mem_ctrls1.perBankRdBursts::14           23598                       # Per bank write bursts
system.mem_ctrls1.perBankRdBursts::15           23752                       # Per bank write bursts
system.mem_ctrls1.perBankWrBursts::0            20223                       # Per bank write bursts
system.mem_ctrls1.perBankWrBursts::1            20134                       # Per bank write bursts
system.mem_ctrls1.perBankWrBursts::2            20139                       # Per bank write bursts
system.mem_ctrls1.perBankWrBursts::3            20436                       # Per bank write bursts
system.mem_ctrls1.perBankWrBursts::4            20042                       # Per bank write bursts
system.mem_ctrls1.perBankWrBursts::5            20338                       # Per bank write bursts
system.mem_ctrls1.perBankWrBursts::6            20337                       # Per bank write bursts
system.mem_ctrls1.perBankWrBursts::7            20291                       # Per bank write bursts
system.mem_ctrls1.perBankWrBursts::8            20410                       # Per bank write bursts
system.mem_ctrls1.perBankWrBursts::9            20195                       # Per bank write bursts
system.mem_ctrls1.perBankWrBursts::10           20118                       # Per bank write bursts
system.mem_ctrls1.perBankWrBursts::11           20151                       # Per bank write bursts
system.mem_ctrls1.perBankWrBursts::12           19934                       # Per bank write bursts
system.mem_ctrls1.perBankWrBursts::13           20198                       # Per bank write bursts
system.mem_ctrls1.perBankWrBursts::14           20157                       # Per bank write bursts
system.mem_ctrls1.perBankWrBursts::15           20104                       # Per bank write bursts
system.mem_ctrls1.numRdRetry                    95351                       # Number of times read queue was full causing retry
system.mem_ctrls1.numWrRetry                    13224                       # Number of times write queue was full causing retry
system.mem_ctrls1.totGap                 153821450500                       # Total gap between requests
system.mem_ctrls1.readPktSize::0                    0                       # Read request sizes (log2)
system.mem_ctrls1.readPktSize::1                    0                       # Read request sizes (log2)
system.mem_ctrls1.readPktSize::2                    0                       # Read request sizes (log2)
system.mem_ctrls1.readPktSize::3                    0                       # Read request sizes (log2)
system.mem_ctrls1.readPktSize::4                    0                       # Read request sizes (log2)
system.mem_ctrls1.readPktSize::5                    0                       # Read request sizes (log2)
system.mem_ctrls1.readPktSize::6               382958                       # Read request sizes (log2)
system.mem_ctrls1.writePktSize::0                   0                       # Write request sizes (log2)
system.mem_ctrls1.writePktSize::1                   0                       # Write request sizes (log2)
system.mem_ctrls1.writePktSize::2                   0                       # Write request sizes (log2)
system.mem_ctrls1.writePktSize::3                   0                       # Write request sizes (log2)
system.mem_ctrls1.writePktSize::4                   0                       # Write request sizes (log2)
system.mem_ctrls1.writePktSize::5                   0                       # Write request sizes (log2)
system.mem_ctrls1.writePktSize::6              323211                       # Write request sizes (log2)
system.mem_ctrls1.rdQLenPdf::0                 200447                       # What read queue length does an incoming req see
system.mem_ctrls1.rdQLenPdf::1                   1642                       # What read queue length does an incoming req see
system.mem_ctrls1.rdQLenPdf::2                   1154                       # What read queue length does an incoming req see
system.mem_ctrls1.rdQLenPdf::3                   1388                       # What read queue length does an incoming req see
system.mem_ctrls1.rdQLenPdf::4                   1529                       # What read queue length does an incoming req see
system.mem_ctrls1.rdQLenPdf::5                   1757                       # What read queue length does an incoming req see
system.mem_ctrls1.rdQLenPdf::6                   1946                       # What read queue length does an incoming req see
system.mem_ctrls1.rdQLenPdf::7                   2017                       # What read queue length does an incoming req see
system.mem_ctrls1.rdQLenPdf::8                   2123                       # What read queue length does an incoming req see
system.mem_ctrls1.rdQLenPdf::9                   2187                       # What read queue length does an incoming req see
system.mem_ctrls1.rdQLenPdf::10                  2319                       # What read queue length does an incoming req see
system.mem_ctrls1.rdQLenPdf::11                  2307                       # What read queue length does an incoming req see
system.mem_ctrls1.rdQLenPdf::12                  2358                       # What read queue length does an incoming req see
system.mem_ctrls1.rdQLenPdf::13                  2352                       # What read queue length does an incoming req see
system.mem_ctrls1.rdQLenPdf::14                  2412                       # What read queue length does an incoming req see
system.mem_ctrls1.rdQLenPdf::15                  2531                       # What read queue length does an incoming req see
system.mem_ctrls1.rdQLenPdf::16                  2662                       # What read queue length does an incoming req see
system.mem_ctrls1.rdQLenPdf::17                  2706                       # What read queue length does an incoming req see
system.mem_ctrls1.rdQLenPdf::18                  2773                       # What read queue length does an incoming req see
system.mem_ctrls1.rdQLenPdf::19                  2842                       # What read queue length does an incoming req see
system.mem_ctrls1.rdQLenPdf::20                  2960                       # What read queue length does an incoming req see
system.mem_ctrls1.rdQLenPdf::21                  2948                       # What read queue length does an incoming req see
system.mem_ctrls1.rdQLenPdf::22                  3116                       # What read queue length does an incoming req see
system.mem_ctrls1.rdQLenPdf::23                  3165                       # What read queue length does an incoming req see
system.mem_ctrls1.rdQLenPdf::24                  3175                       # What read queue length does an incoming req see
system.mem_ctrls1.rdQLenPdf::25                  3433                       # What read queue length does an incoming req see
system.mem_ctrls1.rdQLenPdf::26                  3519                       # What read queue length does an incoming req see
system.mem_ctrls1.rdQLenPdf::27                  3691                       # What read queue length does an incoming req see
system.mem_ctrls1.rdQLenPdf::28                  4011                       # What read queue length does an incoming req see
system.mem_ctrls1.rdQLenPdf::29                  4316                       # What read queue length does an incoming req see
system.mem_ctrls1.rdQLenPdf::30                  5010                       # What read queue length does an incoming req see
system.mem_ctrls1.rdQLenPdf::31                102145                       # What read queue length does an incoming req see
system.mem_ctrls1.wrQLenPdf::0                  46725                       # What write queue length does an incoming req see
system.mem_ctrls1.wrQLenPdf::1                  50460                       # What write queue length does an incoming req see
system.mem_ctrls1.wrQLenPdf::2                  52163                       # What write queue length does an incoming req see
system.mem_ctrls1.wrQLenPdf::3                  52878                       # What write queue length does an incoming req see
system.mem_ctrls1.wrQLenPdf::4                  53682                       # What write queue length does an incoming req see
system.mem_ctrls1.wrQLenPdf::5                  16667                       # What write queue length does an incoming req see
system.mem_ctrls1.wrQLenPdf::6                  20172                       # What write queue length does an incoming req see
system.mem_ctrls1.wrQLenPdf::7                  30464                       # What write queue length does an incoming req see
system.mem_ctrls1.bytesPerActivate::samples       186826                       # Bytes accessed per row activation
system.mem_ctrls1.bytesPerActivate::mean   241.894212                       # Bytes accessed per row activation
system.mem_ctrls1.bytesPerActivate::gmean   190.693306                       # Bytes accessed per row activation
system.mem_ctrls1.bytesPerActivate::stdev   170.678879                       # Bytes accessed per row activation
system.mem_ctrls1.bytesPerActivate::0-127        40230     21.53%     21.53% # Bytes accessed per row activation
system.mem_ctrls1.bytesPerActivate::128-255        52922     28.33%     49.86% # Bytes accessed per row activation
system.mem_ctrls1.bytesPerActivate::256-383        69872     37.40%     87.26% # Bytes accessed per row activation
system.mem_ctrls1.bytesPerActivate::384-511        10433      5.58%     92.84% # Bytes accessed per row activation
system.mem_ctrls1.bytesPerActivate::512-639         6120      3.28%     96.12% # Bytes accessed per row activation
system.mem_ctrls1.bytesPerActivate::640-767         2754      1.47%     97.59% # Bytes accessed per row activation
system.mem_ctrls1.bytesPerActivate::768-895         1512      0.81%     98.40% # Bytes accessed per row activation
system.mem_ctrls1.bytesPerActivate::896-1023         1051      0.56%     98.97% # Bytes accessed per row activation
system.mem_ctrls1.bytesPerActivate::1024-1151         1932      1.03%    100.00% # Bytes accessed per row activation
system.mem_ctrls1.bytesPerActivate::total       186826                       # Bytes accessed per row activation
system.mem_ctrls1.rdPerTurnAround::samples        48419                       # Reads before turning the bus around for writes
system.mem_ctrls1.rdPerTurnAround::mean      7.908610                       # Reads before turning the bus around for writes
system.mem_ctrls1.rdPerTurnAround::stdev    15.630325                       # Reads before turning the bus around for writes
system.mem_ctrls1.rdPerTurnAround::0-127        48413     99.99%     99.99% # Reads before turning the bus around for writes
system.mem_ctrls1.rdPerTurnAround::128-255            4      0.01%    100.00% # Reads before turning the bus around for writes
system.mem_ctrls1.rdPerTurnAround::1152-1279            1      0.00%    100.00% # Reads before turning the bus around for writes
system.mem_ctrls1.rdPerTurnAround::2816-2943            1      0.00%    100.00% # Reads before turning the bus around for writes
system.mem_ctrls1.rdPerTurnAround::total        48419                       # Reads before turning the bus around for writes
system.mem_ctrls1.wrPerTurnAround::samples        48419                       # Writes before turning the bus around for reads
system.mem_ctrls1.wrPerTurnAround::mean      6.675210                       # Writes before turning the bus around for reads
system.mem_ctrls1.wrPerTurnAround::gmean     6.079128                       # Writes before turning the bus around for reads
system.mem_ctrls1.wrPerTurnAround::stdev     3.476357                       # Writes before turning the bus around for reads
system.mem_ctrls1.wrPerTurnAround::4-7          38591     79.70%     79.70% # Writes before turning the bus around for reads
system.mem_ctrls1.wrPerTurnAround::8-11          2758      5.70%     85.40% # Writes before turning the bus around for reads
system.mem_ctrls1.wrPerTurnAround::12-15         4334      8.95%     94.35% # Writes before turning the bus around for reads
system.mem_ctrls1.wrPerTurnAround::16-19         2736      5.65%    100.00% # Writes before turning the bus around for reads
system.mem_ctrls1.wrPerTurnAround::total        48419                       # Writes before turning the bus around for reads
system.mem_ctrls1.totQLat                 58589699325                       # Total ticks spent queuing
system.mem_ctrls1.totMemAccLat            65769843075                       # Total ticks spent from burst creation until serviced by the DRAM
system.mem_ctrls1.totBusLat                1914705000                       # Total ticks spent in databus transfers
system.mem_ctrls1.avgQLat                   152999.29                       # Average queueing delay per DRAM burst
system.mem_ctrls1.avgBusLat                   5000.00                       # Average bus latency per DRAM burst
system.mem_ctrls1.avgMemAccLat              171749.29                       # Average memory access latency per DRAM burst
system.mem_ctrls1.avgRdBW                      159.33                       # Average DRAM read bandwidth in MiByte/s
system.mem_ctrls1.avgWrBW                      134.48                       # Average achieved write bandwidth in MiByte/s
system.mem_ctrls1.avgRdBWSys                   159.34                       # Average system read bandwidth in MiByte/s
system.mem_ctrls1.avgWrBWSys                   134.48                       # Average system write bandwidth in MiByte/s
system.mem_ctrls1.peakBW                     12800.00                       # Theoretical peak bandwidth in MiByte/s
system.mem_ctrls1.busUtil                        2.30                       # Data bus utilization in percentage
system.mem_ctrls1.busUtilRead                    1.24                       # Data bus utilization in percentage for reads
system.mem_ctrls1.busUtilWrite                   1.05                       # Data bus utilization in percentage for writes
system.mem_ctrls1.avgRdQLen                      1.39                       # Average read queue length when enqueuing
system.mem_ctrls1.avgWrQLen                      2.99                       # Average write queue length when enqueuing
system.mem_ctrls1.readRowHits                  291642                       # Number of row buffer hits during reads
system.mem_ctrls1.writeRowHits                 227671                       # Number of row buffer hits during writes
system.mem_ctrls1.readRowHitRate                76.16                       # Row buffer hit rate for reads
system.mem_ctrls1.writeRowHitRate               70.44                       # Row buffer hit rate for writes
system.mem_ctrls1.avgGap                    217825.27                       # Average gap between requests
system.mem_ctrls1.pageHitRate                   73.54                       # Row buffer hit rate, read and write combined
system.mem_ctrls1.memoryStateTime::IDLE   27043624250                       # Time in different power states
system.mem_ctrls1.memoryStateTime::REF     5136300000                       # Time in different power states
system.mem_ctrls1.memoryStateTime::PRE_PDN            0                       # Time in different power states
system.mem_ctrls1.memoryStateTime::ACT   121637718250                       # Time in different power states
system.mem_ctrls1.memoryStateTime::ACT_PDN            0                       # Time in different power states
system.mem_ctrls1.actEnergy::0              711539640                       # Energy for activate commands per rank (pJ)
system.mem_ctrls1.actEnergy::1              700842240                       # Energy for activate commands per rank (pJ)
system.mem_ctrls1.preEnergy::0              388240875                       # Energy for precharge commands per rank (pJ)
system.mem_ctrls1.preEnergy::1              382404000                       # Energy for precharge commands per rank (pJ)
system.mem_ctrls1.readEnergy::0            1500532800                       # Energy for read commands per rank (pJ)
system.mem_ctrls1.readEnergy::1            1486180800                       # Energy for read commands per rank (pJ)
system.mem_ctrls1.writeEnergy::0           1049371200                       # Energy for write commands per rank (pJ)
system.mem_ctrls1.writeEnergy::1           1044893520                       # Energy for write commands per rank (pJ)
system.mem_ctrls1.refreshEnergy::0        10046602800                       # Energy for refresh commands per rank (pJ)
system.mem_ctrls1.refreshEnergy::1        10046602800                       # Energy for refresh commands per rank (pJ)
system.mem_ctrls1.actBackEnergy::0        60084381150                       # Energy for active background per rank (pJ)
system.mem_ctrls1.actBackEnergy::1        59606691795                       # Energy for active background per rank (pJ)
system.mem_ctrls1.preBackEnergy::0        39584979750                       # Energy for precharge background per rank (pJ)
system.mem_ctrls1.preBackEnergy::1        40004005500                       # Energy for precharge background per rank (pJ)
system.mem_ctrls1.totalEnergy::0         113365648215                       # Total energy per rank (pJ)
system.mem_ctrls1.totalEnergy::1         113271620655                       # Total energy per rank (pJ)
system.mem_ctrls1.averagePower::0          737.013365                       # Core power per rank (mW)
system.mem_ctrls1.averagePower::1          736.402073                       # Core power per rank (mW)
system.mem_ctrls2.bytes_read::ruby.dir_cntrl2     24509376                       # Number of bytes read from this memory
system.mem_ctrls2.bytes_read::total          24509376                       # Number of bytes read from this memory
system.mem_ctrls2.bytes_written::ruby.dir_cntrl2     20687104                       # Number of bytes written to this memory
system.mem_ctrls2.bytes_written::total       20687104                       # Number of bytes written to this memory
system.mem_ctrls2.num_reads::ruby.dir_cntrl2       382959                       # Number of read requests responded to by this memory
system.mem_ctrls2.num_reads::total             382959                       # Number of read requests responded to by this memory
system.mem_ctrls2.num_writes::ruby.dir_cntrl2       323236                       # Number of write requests responded to by this memory
system.mem_ctrls2.num_writes::total            323236                       # Number of write requests responded to by this memory
system.mem_ctrls2.bw_read::ruby.dir_cntrl2    159335747                       # Total read bandwidth from this memory (bytes/s)
system.mem_ctrls2.bw_read::total            159335747                       # Total read bandwidth from this memory (bytes/s)
system.mem_ctrls2.bw_write::ruby.dir_cntrl2    134487111                       # Write bandwidth from this memory (bytes/s)
system.mem_ctrls2.bw_write::total           134487111                       # Write bandwidth from this memory (bytes/s)
system.mem_ctrls2.bw_total::ruby.dir_cntrl2    293822859                       # Total bandwidth to/from this memory (bytes/s)
system.mem_ctrls2.bw_total::total           293822859                       # Total bandwidth to/from this memory (bytes/s)
system.mem_ctrls2.readReqs                     382959                       # Number of read requests accepted
system.mem_ctrls2.writeReqs                    323236                       # Number of write requests accepted
system.mem_ctrls2.readBursts                   382959                       # Number of DRAM read bursts, including those serviced by the write queue
system.mem_ctrls2.writeBursts                  323236                       # Number of DRAM write bursts, including those merged in the write queue
system.mem_ctrls2.bytesReadDRAM              24508224                       # Total number of bytes read from DRAM
system.mem_ctrls2.bytesReadWrQ                   1152                       # Total number of bytes read from write queue
system.mem_ctrls2.bytesWritten               20686976                       # Total number of bytes written to DRAM
system.mem_ctrls2.bytesReadSys               24509376                       # Total read bytes from the system interface side
system.mem_ctrls2.bytesWrittenSys            20687104                       # Total written bytes from the system interface side
system.mem_ctrls2.servicedByWrQ                    18                       # Number of DRAM read bursts serviced by the write queue
system.mem_ctrls2.mergedWrBursts                    0                       # Number of DRAM write bursts merged with an existing one
system.mem_ctrls2.neitherReadNorWriteReqs            0                       # Number of requests that are neither read nor write
system.mem_ctrls2.perBankRdBursts::0            23642                       # Per bank write bursts
system.mem_ctrls2.perBankRdBursts::1            24299                       # Per bank write bursts
system.mem_ctrls2.perBankRdBursts::2            23934                       # Per bank write bursts
system.mem_ctrls2.perBankRdBursts::3            24276                       # Per bank write bursts
system.mem_ctrls2.perBankRdBursts::4            23867                       # Per bank write bursts
system.mem_ctrls2.perBankRdBursts::5            24155                       # Per bank write bursts
system.mem_ctrls2.perBankRdBursts::6            24230                       # Per bank write bursts
system.mem_ctrls2.perBankRdBursts::7            24028                       # Per bank write bursts
system.mem_ctrls2.perBankRdBursts::8            23897                       # Per bank write bursts
system.mem_ctrls2.perBankRdBursts::9            24050                       # Per bank write bursts
system.mem_ctrls2.perBankRdBursts::10           23813                       # Per bank write bursts
system.mem_ctrls2.perBankRdBursts::11           24323                       # Per bank write bursts
system.mem_ctrls2.perBankRdBursts::12           23625                       # Per bank write bursts
system.mem_ctrls2.perBankRdBursts::13           23435                       # Per bank write bursts
system.mem_ctrls2.perBankRdBursts::14           23589                       # Per bank write bursts
system.mem_ctrls2.perBankRdBursts::15           23778                       # Per bank write bursts
system.mem_ctrls2.perBankWrBursts::0            20217                       # Per bank write bursts
system.mem_ctrls2.perBankWrBursts::1            20131                       # Per bank write bursts
system.mem_ctrls2.perBankWrBursts::2            20142                       # Per bank write bursts
system.mem_ctrls2.perBankWrBursts::3            20441                       # Per bank write bursts
system.mem_ctrls2.perBankWrBursts::4            20043                       # Per bank write bursts
system.mem_ctrls2.perBankWrBursts::5            20323                       # Per bank write bursts
system.mem_ctrls2.perBankWrBursts::6            20345                       # Per bank write bursts
system.mem_ctrls2.perBankWrBursts::7            20298                       # Per bank write bursts
system.mem_ctrls2.perBankWrBursts::8            20411                       # Per bank write bursts
system.mem_ctrls2.perBankWrBursts::9            20202                       # Per bank write bursts
system.mem_ctrls2.perBankWrBursts::10           20110                       # Per bank write bursts
system.mem_ctrls2.perBankWrBursts::11           20149                       # Per bank write bursts
system.mem_ctrls2.perBankWrBursts::12           19942                       # Per bank write bursts
system.mem_ctrls2.perBankWrBursts::13           20193                       # Per bank write bursts
system.mem_ctrls2.perBankWrBursts::14           20166                       # Per bank write bursts
system.mem_ctrls2.perBankWrBursts::15           20121                       # Per bank write bursts
system.mem_ctrls2.numRdRetry                    90813                       # Number of times read queue was full causing retry
system.mem_ctrls2.numWrRetry                    12740                       # Number of times write queue was full causing retry
system.mem_ctrls2.totGap                 153821404500                       # Total gap between requests
system.mem_ctrls2.readPktSize::0                    0                       # Read request sizes (log2)
system.mem_ctrls2.readPktSize::1                    0                       # Read request sizes (log2)
system.mem_ctrls2.readPktSize::2                    0                       # Read request sizes (log2)
system.mem_ctrls2.readPktSize::3                    0                       # Read request sizes (log2)
system.mem_ctrls2.readPktSize::4                    0                       # Read request sizes (log2)
system.mem_ctrls2.readPktSize::5                    0                       # Read request sizes (log2)
system.mem_ctrls2.readPktSize::6               382959                       # Read request sizes (log2)
system.mem_ctrls2.writePktSize::0                   0                       # Write request sizes (log2)
system.mem_ctrls2.writePktSize::1                   0                       # Write request sizes (log2)
system.mem_ctrls2.writePktSize::2                   0                       # Write request sizes (log2)
system.mem_ctrls2.writePktSize::3                   0                       # Write request sizes (log2)
system.mem_ctrls2.writePktSize::4                   0                       # Write request sizes (log2)
system.mem_ctrls2.writePktSize::5                   0                       # Write request sizes (log2)
system.mem_ctrls2.writePktSize::6              323236                       # Write request sizes (log2)
system.mem_ctrls2.rdQLenPdf::0                 200720                       # What read queue length does an incoming req see
system.mem_ctrls2.rdQLenPdf::1                   1447                       # What read queue length does an incoming req see
system.mem_ctrls2.rdQLenPdf::2                   1172                       # What read queue length does an incoming req see
system.mem_ctrls2.rdQLenPdf::3                   1358                       # What read queue length does an incoming req see
system.mem_ctrls2.rdQLenPdf::4                   1611                       # What read queue length does an incoming req see
system.mem_ctrls2.rdQLenPdf::5                   1826                       # What read queue length does an incoming req see
system.mem_ctrls2.rdQLenPdf::6                   2060                       # What read queue length does an incoming req see
system.mem_ctrls2.rdQLenPdf::7                   2148                       # What read queue length does an incoming req see
system.mem_ctrls2.rdQLenPdf::8                   2200                       # What read queue length does an incoming req see
system.mem_ctrls2.rdQLenPdf::9                   2243                       # What read queue length does an incoming req see
system.mem_ctrls2.rdQLenPdf::10                  2325                       # What read queue length does an incoming req see
system.mem_ctrls2.rdQLenPdf::11                  2388                       # What read queue length does an incoming req see
system.mem_ctrls2.rdQLenPdf::12                  2401                       # What read queue length does an incoming req see
system.mem_ctrls2.rdQLenPdf::13                  2491                       # What read queue length does an incoming req see
system.mem_ctrls2.rdQLenPdf::14                  2642                       # What read queue length does an incoming req see
system.mem_ctrls2.rdQLenPdf::15                  2767                       # What read queue length does an incoming req see
system.mem_ctrls2.rdQLenPdf::16                  2774                       # What read queue length does an incoming req see
system.mem_ctrls2.rdQLenPdf::17                  2971                       # What read queue length does an incoming req see
system.mem_ctrls2.rdQLenPdf::18                  3028                       # What read queue length does an incoming req see
system.mem_ctrls2.rdQLenPdf::19                  3124                       # What read queue length does an incoming req see
system.mem_ctrls2.rdQLenPdf::20                  3222                       # What read queue length does an incoming req see
system.mem_ctrls2.rdQLenPdf::21                  3192                       # What read queue length does an incoming req see
system.mem_ctrls2.rdQLenPdf::22                  3282                       # What read queue length does an incoming req see
system.mem_ctrls2.rdQLenPdf::23                  3442                       # What read queue length does an incoming req see
system.mem_ctrls2.rdQLenPdf::24                  3386                       # What read queue length does an incoming req see
system.mem_ctrls2.rdQLenPdf::25                  3488                       # What read queue length does an incoming req see
system.mem_ctrls2.rdQLenPdf::26                  3827                       # What read queue length does an incoming req see
system.mem_ctrls2.rdQLenPdf::27                  3990                       # What read queue length does an incoming req see
system.mem_ctrls2.rdQLenPdf::28                  4199                       # What read queue length does an incoming req see
system.mem_ctrls2.rdQLenPdf::29                  4534                       # What read queue length does an incoming req see
system.mem_ctrls2.rdQLenPdf::30                  5153                       # What read queue length does an incoming req see
system.mem_ctrls2.rdQLenPdf::31                 97530                       # What read queue length does an incoming req see
system.mem_ctrls2.wrQLenPdf::0                  46728                       # What write queue length does an incoming req see
system.mem_ctrls2.wrQLenPdf::1                  50533                       # What write queue length does an incoming req see
system.mem_ctrls2.wrQLenPdf::2                  52360                       # What write queue length does an incoming req see
system.mem_ctrls2.wrQLenPdf::3                  53156                       # What write queue length does an incoming req see
system.mem_ctrls2.wrQLenPdf::4                  53922                       # What write queue length does an incoming req see
system.mem_ctrls2.wrQLenPdf::5                  16794                       # What write queue length does an incoming req see
system.mem_ctrls2.wrQLenPdf::6                  20124                       # What write queue length does an incoming req see
system.mem_ctrls2.wrQLenPdf::7                  29619                       # What write queue length does an incoming req see
system.mem_ctrls2.bytesPerActivate::samples       185926                       # Bytes accessed per row activation
system.mem_ctrls2.bytesPerActivate::mean   243.076493                       # Bytes accessed per row activation
system.mem_ctrls2.bytesPerActivate::gmean   191.916892                       # Bytes accessed per row activation
system.mem_ctrls2.bytesPerActivate::stdev   170.793343                       # Bytes accessed per row activation
system.mem_ctrls2.bytesPerActivate::0-127        39450     21.22%     21.22% # Bytes accessed per row activation
system.mem_ctrls2.bytesPerActivate::128-255        51757     27.84%     49.06% # Bytes accessed per row activation
system.mem_ctrls2.bytesPerActivate::256-383        70837     38.10%     87.16% # Bytes accessed per row activation
system.mem_ctrls2.bytesPerActivate::384-511        10510      5.65%     92.81% # Bytes accessed per row activation
system.mem_ctrls2.bytesPerActivate::512-639         6023      3.24%     96.05% # Bytes accessed per row activation
system.mem_ctrls2.bytesPerActivate::640-767         2829      1.52%     97.57% # Bytes accessed per row activation
system.mem_ctrls2.bytesPerActivate::768-895         1537      0.83%     98.40% # Bytes accessed per row activation
system.mem_ctrls2.bytesPerActivate::896-1023          995      0.54%     98.93% # Bytes accessed per row activation
system.mem_ctrls2.bytesPerActivate::1024-1151         1988      1.07%    100.00% # Bytes accessed per row activation
system.mem_ctrls2.bytesPerActivate::total       185926                       # Bytes accessed per row activation
system.mem_ctrls2.rdPerTurnAround::samples        48472                       # Reads before turning the bus around for writes
system.mem_ctrls2.rdPerTurnAround::mean      7.900169                       # Reads before turning the bus around for writes
system.mem_ctrls2.rdPerTurnAround::stdev    15.675782                       # Reads before turning the bus around for writes
system.mem_ctrls2.rdPerTurnAround::0-127        48466     99.99%     99.99% # Reads before turning the bus around for writes
system.mem_ctrls2.rdPerTurnAround::128-255            4      0.01%    100.00% # Reads before turning the bus around for writes
system.mem_ctrls2.rdPerTurnAround::1152-1279            1      0.00%    100.00% # Reads before turning the bus around for writes
system.mem_ctrls2.rdPerTurnAround::2816-2943            1      0.00%    100.00% # Reads before turning the bus around for writes
system.mem_ctrls2.rdPerTurnAround::total        48472                       # Reads before turning the bus around for writes
system.mem_ctrls2.wrPerTurnAround::samples        48472                       # Writes before turning the bus around for reads
system.mem_ctrls2.wrPerTurnAround::mean      6.668468                       # Writes before turning the bus around for reads
system.mem_ctrls2.wrPerTurnAround::gmean     6.076051                       # Writes before turning the bus around for reads
system.mem_ctrls2.wrPerTurnAround::stdev     3.464460                       # Writes before turning the bus around for reads
system.mem_ctrls2.wrPerTurnAround::4-7          38645     79.73%     79.73% # Writes before turning the bus around for reads
system.mem_ctrls2.wrPerTurnAround::8-11          2856      5.89%     85.62% # Writes before turning the bus around for reads
system.mem_ctrls2.wrPerTurnAround::12-15         4210      8.69%     94.30% # Writes before turning the bus around for reads
system.mem_ctrls2.wrPerTurnAround::16-19         2761      5.70%    100.00% # Writes before turning the bus around for reads
system.mem_ctrls2.wrPerTurnAround::total        48472                       # Writes before turning the bus around for reads
system.mem_ctrls2.totQLat                 57933586226                       # Total ticks spent queuing
system.mem_ctrls2.totMemAccLat            65113729976                       # Total ticks spent from burst creation until serviced by the DRAM
system.mem_ctrls2.totBusLat                1914705000                       # Total ticks spent in databus transfers
system.mem_ctrls2.avgQLat                   151285.93                       # Average queueing delay per DRAM burst
system.mem_ctrls2.avgBusLat                   5000.00                       # Average bus latency per DRAM burst
system.mem_ctrls2.avgMemAccLat              170035.93                       # Average memory access latency per DRAM burst
system.mem_ctrls2.avgRdBW                      159.33                       # Average DRAM read bandwidth in MiByte/s
system.mem_ctrls2.avgWrBW                      134.49                       # Average achieved write bandwidth in MiByte/s
system.mem_ctrls2.avgRdBWSys                   159.34                       # Average system read bandwidth in MiByte/s
system.mem_ctrls2.avgWrBWSys                   134.49                       # Average system write bandwidth in MiByte/s
system.mem_ctrls2.peakBW                     12800.00                       # Theoretical peak bandwidth in MiByte/s
system.mem_ctrls2.busUtil                        2.30                       # Data bus utilization in percentage
system.mem_ctrls2.busUtilRead                    1.24                       # Data bus utilization in percentage for reads
system.mem_ctrls2.busUtilWrite                   1.05                       # Data bus utilization in percentage for writes
system.mem_ctrls2.avgRdQLen                      1.38                       # Average read queue length when enqueuing
system.mem_ctrls2.avgWrQLen                      3.01                       # Average write queue length when enqueuing
system.mem_ctrls2.readRowHits                  291751                       # Number of row buffer hits during reads
system.mem_ctrls2.writeRowHits                 228488                       # Number of row buffer hits during writes
system.mem_ctrls2.readRowHitRate                76.19                       # Row buffer hit rate for reads
system.mem_ctrls2.writeRowHitRate               70.69                       # Row buffer hit rate for writes
system.mem_ctrls2.avgGap                    217817.18                       # Average gap between requests
system.mem_ctrls2.pageHitRate                   73.67                       # Row buffer hit rate, read and write combined
system.mem_ctrls2.memoryStateTime::IDLE   27140346000                       # Time in different power states
system.mem_ctrls2.memoryStateTime::REF     5136300000                       # Time in different power states
system.mem_ctrls2.memoryStateTime::PRE_PDN            0                       # Time in different power states
system.mem_ctrls2.memoryStateTime::ACT   121540996500                       # Time in different power states
system.mem_ctrls2.memoryStateTime::ACT_PDN            0                       # Time in different power states
system.mem_ctrls2.actEnergy::0              708802920                       # Energy for activate commands per rank (pJ)
system.mem_ctrls2.actEnergy::1              696737160                       # Energy for activate commands per rank (pJ)
system.mem_ctrls2.preEnergy::0              386747625                       # Energy for precharge commands per rank (pJ)
system.mem_ctrls2.preEnergy::1              380164125                       # Energy for precharge commands per rank (pJ)
system.mem_ctrls2.readEnergy::0            1500805800                       # Energy for read commands per rank (pJ)
system.mem_ctrls2.readEnergy::1            1485931200                       # Energy for read commands per rank (pJ)
system.mem_ctrls2.writeEnergy::0           1049358240                       # Energy for write commands per rank (pJ)
system.mem_ctrls2.writeEnergy::1           1045049040                       # Energy for write commands per rank (pJ)
system.mem_ctrls2.refreshEnergy::0        10046602800                       # Energy for refresh commands per rank (pJ)
system.mem_ctrls2.refreshEnergy::1        10046602800                       # Energy for refresh commands per rank (pJ)
system.mem_ctrls2.actBackEnergy::0        59661511830                       # Energy for active background per rank (pJ)
system.mem_ctrls2.actBackEnergy::1        59198215545                       # Energy for active background per rank (pJ)
system.mem_ctrls2.preBackEnergy::0        39955917750                       # Energy for precharge background per rank (pJ)
system.mem_ctrls2.preBackEnergy::1        40362318000                       # Energy for precharge background per rank (pJ)
system.mem_ctrls2.totalEnergy::0         113309746965                       # Total energy per rank (pJ)
system.mem_ctrls2.totalEnergy::1         113215017870                       # Total energy per rank (pJ)
system.mem_ctrls2.averagePower::0          736.649940                       # Core power per rank (mW)
system.mem_ctrls2.averagePower::1          736.034087                       # Core power per rank (mW)
system.mem_ctrls3.bytes_read::ruby.dir_cntrl3     24489216                       # Number of bytes read from this memory
system.mem_ctrls3.bytes_read::total          24489216                       # Number of bytes read from this memory
system.mem_ctrls3.bytes_written::ruby.dir_cntrl3     20684864                       # Number of bytes written to this memory
system.mem_ctrls3.bytes_written::total       20684864                       # Number of bytes written to this memory
system.mem_ctrls3.num_reads::ruby.dir_cntrl3       382644                       # Number of read requests responded to by this memory
system.mem_ctrls3.num_reads::total             382644                       # Number of read requests responded to by this memory
system.mem_ctrls3.num_writes::ruby.dir_cntrl3       323201                       # Number of write requests responded to by this memory
system.mem_ctrls3.num_writes::total            323201                       # Number of write requests responded to by this memory
system.mem_ctrls3.bw_read::ruby.dir_cntrl3    159204687                       # Total read bandwidth from this memory (bytes/s)
system.mem_ctrls3.bw_read::total            159204687                       # Total read bandwidth from this memory (bytes/s)
system.mem_ctrls3.bw_write::ruby.dir_cntrl3    134472549                       # Write bandwidth from this memory (bytes/s)
system.mem_ctrls3.bw_write::total           134472549                       # Write bandwidth from this memory (bytes/s)
system.mem_ctrls3.bw_total::ruby.dir_cntrl3    293677236                       # Total bandwidth to/from this memory (bytes/s)
system.mem_ctrls3.bw_total::total           293677236                       # Total bandwidth to/from this memory (bytes/s)
system.mem_ctrls3.readReqs                     382644                       # Number of read requests accepted
system.mem_ctrls3.writeReqs                    323201                       # Number of write requests accepted
system.mem_ctrls3.readBursts                   382644                       # Number of DRAM read bursts, including those serviced by the write queue
system.mem_ctrls3.writeBursts                  323201                       # Number of DRAM write bursts, including those merged in the write queue
system.mem_ctrls3.bytesReadDRAM              24488576                       # Total number of bytes read from DRAM
system.mem_ctrls3.bytesReadWrQ                    640                       # Total number of bytes read from write queue
system.mem_ctrls3.bytesWritten               20684672                       # Total number of bytes written to DRAM
system.mem_ctrls3.bytesReadSys               24489216                       # Total read bytes from the system interface side
system.mem_ctrls3.bytesWrittenSys            20684864                       # Total written bytes from the system interface side
system.mem_ctrls3.servicedByWrQ                    10                       # Number of DRAM read bursts serviced by the write queue
system.mem_ctrls3.mergedWrBursts                    0                       # Number of DRAM write bursts merged with an existing one
system.mem_ctrls3.neitherReadNorWriteReqs            0                       # Number of requests that are neither read nor write
system.mem_ctrls3.perBankRdBursts::0            23631                       # Per bank write bursts
system.mem_ctrls3.perBankRdBursts::1            24297                       # Per bank write bursts
system.mem_ctrls3.perBankRdBursts::2            23812                       # Per bank write bursts
system.mem_ctrls3.perBankRdBursts::3            24239                       # Per bank write bursts
system.mem_ctrls3.perBankRdBursts::4            23815                       # Per bank write bursts
system.mem_ctrls3.perBankRdBursts::5            24164                       # Per bank write bursts
system.mem_ctrls3.perBankRdBursts::6            24222                       # Per bank write bursts
system.mem_ctrls3.perBankRdBursts::7            24031                       # Per bank write bursts
system.mem_ctrls3.perBankRdBursts::8            23882                       # Per bank write bursts
system.mem_ctrls3.perBankRdBursts::9            24026                       # Per bank write bursts
system.mem_ctrls3.perBankRdBursts::10           23881                       # Per bank write bursts
system.mem_ctrls3.perBankRdBursts::11           24274                       # Per bank write bursts
system.mem_ctrls3.perBankRdBursts::12           23558                       # Per bank write bursts
system.mem_ctrls3.perBankRdBursts::13           23445                       # Per bank write bursts
system.mem_ctrls3.perBankRdBursts::14           23607                       # Per bank write bursts
system.mem_ctrls3.perBankRdBursts::15           23750                       # Per bank write bursts
system.mem_ctrls3.perBankWrBursts::0            20218                       # Per bank write bursts
system.mem_ctrls3.perBankWrBursts::1            20127                       # Per bank write bursts
system.mem_ctrls3.perBankWrBursts::2            20145                       # Per bank write bursts
system.mem_ctrls3.perBankWrBursts::3            20429                       # Per bank write bursts
system.mem_ctrls3.perBankWrBursts::4            20038                       # Per bank write bursts
system.mem_ctrls3.perBankWrBursts::5            20324                       # Per bank write bursts
system.mem_ctrls3.perBankWrBursts::6            20348                       # Per bank write bursts
system.mem_ctrls3.perBankWrBursts::7            20287                       # Per bank write bursts
system.mem_ctrls3.perBankWrBursts::8            20407                       # Per bank write bursts
system.mem_ctrls3.perBankWrBursts::9            20201                       # Per bank write bursts
system.mem_ctrls3.perBankWrBursts::10           20113                       # Per bank write bursts
system.mem_ctrls3.perBankWrBursts::11           20159                       # Per bank write bursts
system.mem_ctrls3.perBankWrBursts::12           19939                       # Per bank write bursts
system.mem_ctrls3.perBankWrBursts::13           20200                       # Per bank write bursts
system.mem_ctrls3.perBankWrBursts::14           20163                       # Per bank write bursts
system.mem_ctrls3.perBankWrBursts::15           20100                       # Per bank write bursts
system.mem_ctrls3.numRdRetry                    87019                       # Number of times read queue was full causing retry
system.mem_ctrls3.numWrRetry                    12694                       # Number of times write queue was full causing retry
system.mem_ctrls3.totGap                 153821081500                       # Total gap between requests
system.mem_ctrls3.readPktSize::0                    0                       # Read request sizes (log2)
system.mem_ctrls3.readPktSize::1                    0                       # Read request sizes (log2)
system.mem_ctrls3.readPktSize::2                    0                       # Read request sizes (log2)
system.mem_ctrls3.readPktSize::3                    0                       # Read request sizes (log2)
system.mem_ctrls3.readPktSize::4                    0                       # Read request sizes (log2)
system.mem_ctrls3.readPktSize::5                    0                       # Read request sizes (log2)
system.mem_ctrls3.readPktSize::6               382644                       # Read request sizes (log2)
system.mem_ctrls3.writePktSize::0                   0                       # Write request sizes (log2)
system.mem_ctrls3.writePktSize::1                   0                       # Write request sizes (log2)
system.mem_ctrls3.writePktSize::2                   0                       # Write request sizes (log2)
system.mem_ctrls3.writePktSize::3                   0                       # Write request sizes (log2)
system.mem_ctrls3.writePktSize::4                   0                       # Write request sizes (log2)
system.mem_ctrls3.writePktSize::5                   0                       # Write request sizes (log2)
system.mem_ctrls3.writePktSize::6              323201                       # Write request sizes (log2)
system.mem_ctrls3.rdQLenPdf::0                 200393                       # What read queue length does an incoming req see
system.mem_ctrls3.rdQLenPdf::1                   1573                       # What read queue length does an incoming req see
system.mem_ctrls3.rdQLenPdf::2                   1217                       # What read queue length does an incoming req see
system.mem_ctrls3.rdQLenPdf::3                   1452                       # What read queue length does an incoming req see
system.mem_ctrls3.rdQLenPdf::4                   1698                       # What read queue length does an incoming req see
system.mem_ctrls3.rdQLenPdf::5                   1921                       # What read queue length does an incoming req see
system.mem_ctrls3.rdQLenPdf::6                   2089                       # What read queue length does an incoming req see
system.mem_ctrls3.rdQLenPdf::7                   2198                       # What read queue length does an incoming req see
system.mem_ctrls3.rdQLenPdf::8                   2322                       # What read queue length does an incoming req see
system.mem_ctrls3.rdQLenPdf::9                   2411                       # What read queue length does an incoming req see
system.mem_ctrls3.rdQLenPdf::10                  2529                       # What read queue length does an incoming req see
system.mem_ctrls3.rdQLenPdf::11                  2460                       # What read queue length does an incoming req see
system.mem_ctrls3.rdQLenPdf::12                  2498                       # What read queue length does an incoming req see
system.mem_ctrls3.rdQLenPdf::13                  2581                       # What read queue length does an incoming req see
system.mem_ctrls3.rdQLenPdf::14                  2701                       # What read queue length does an incoming req see
system.mem_ctrls3.rdQLenPdf::15                  2791                       # What read queue length does an incoming req see
system.mem_ctrls3.rdQLenPdf::16                  2959                       # What read queue length does an incoming req see
system.mem_ctrls3.rdQLenPdf::17                  3040                       # What read queue length does an incoming req see
system.mem_ctrls3.rdQLenPdf::18                  3131                       # What read queue length does an incoming req see
system.mem_ctrls3.rdQLenPdf::19                  3267                       # What read queue length does an incoming req see
system.mem_ctrls3.rdQLenPdf::20                  3230                       # What read queue length does an incoming req see
system.mem_ctrls3.rdQLenPdf::21                  3271                       # What read queue length does an incoming req see
system.mem_ctrls3.rdQLenPdf::22                  3316                       # What read queue length does an incoming req see
system.mem_ctrls3.rdQLenPdf::23                  3404                       # What read queue length does an incoming req see
system.mem_ctrls3.rdQLenPdf::24                  3702                       # What read queue length does an incoming req see
[...]
system.ruby.L2Cache_Controller.S_I.Ack_all::total           14                      
system.ruby.L2Cache_Controller.ISS.L1_GETS |           4    100.00%    100.00% |           0      0.00%    100.00% |           0      0.00%    100.00% |           0      0.00%    100.00% |           0      0.00%    100.00% |           0      0.00%    100.00% |           0      0.00%    100.00% |           0      0.00%    100.00% |           0      0.00%    100.00% |           0      0.00%    100.00% |           0      0.00%    100.00% |           0      0.00%    100.00% |           0      0.00%    100.00% |           0      0.00%    100.00% |           0      0.00%    100.00% |           0      0.00%    100.00% |           0      0.00%    100.00% |           0      0.00%    100.00% |           0      0.00%    100.00% |           0      0.00%    100.00% |           0      0.00%    100.00% |           0      0.00%    100.00% |           0      0.00%    100.00% |           0      0.00%    100.00% |           0      0.00%    100.00% |           0      0.00%    100.00% |           0      0.00%    100.00% |           0      0.00%    100.00% |           0      0.00%    100.00% |           0      0.00%    100.00% |           0      0.00%    100.00% |           0      0.00%    100.00%
system.ruby.L2Cache_Controller.ISS.L1_GETS::total            4                      
system.ruby.L2Cache_Controller.ISS.Mem_Data |       18677      7.92%      7.92% |        7081      3.00%     10.93% |        7084      3.01%     13.93% |        7031      2.98%     16.92% |        7000      2.97%     19.89% |        6985      2.96%     22.85% |        6997      2.97%     25.82% |        6991      2.97%     28.78% |        7032      2.98%     31.77% |        7033      2.98%     34.75% |        7064      3.00%     37.75% |        6988      2.96%     40.71% |        6994      2.97%     43.68% |        6993      2.97%     46.65% |        6994      2.97%     49.61% |        6959      2.95%     52.57% |        6997      2.97%     55.54% |        6974      2.96%     58.49% |        7004      2.97%     61.47% |        6983      2.96%     64.43% |        6982      2.96%     67.39% |        6967      2.96%     70.35% |        6991      2.97%     73.31% |        6985      2.96%     76.28% |        7003      2.97%     79.25% |        7005      2.97%     82.22% |        6984      2.96%     85.18% |        6960      2.95%     88.14% |        7005      2.97%     91.11% |        6985      2.96%     94.07% |        6959      2.95%     97.02% |        7017      2.98%    100.00%
system.ruby.L2Cache_Controller.ISS.Mem_Data::total       235704                      
system.ruby.L2Cache_Controller.IS.Mem_Data |         546      3.28%      3.28% |         471      2.83%      6.12% |         464      2.79%      8.91% |         465      2.80%     11.71% |         511      3.07%     14.78% |         466      2.80%     17.59% |         504      3.03%     20.62% |         528      3.18%     23.79% |         547      3.29%     27.08% |         487      2.93%     30.01% |         533      3.21%     33.22% |         566      3.41%     36.63% |         618      3.72%     40.34% |         561      3.38%     43.72% |         580      3.49%     47.21% |         524      3.15%     50.36% |         532      3.20%     53.56% |         569      3.42%     56.98% |         562      3.38%     60.37% |         510      3.07%     63.43% |         505      3.04%     66.47% |         520      3.13%     69.60% |         480      2.89%     72.49% |         468      2.82%     75.30% |         546      3.28%     78.59% |         592      3.56%     82.15% |         532      3.20%     85.35% |         479      2.88%     88.23% |         489      2.94%     91.17% |         510      3.07%     94.24% |         491      2.95%     97.20% |         466      2.80%    100.00%
system.ruby.L2Cache_Controller.IS.Mem_Data::total        16622                      
system.ruby.L2Cache_Controller.IM.L1_GETX |           1    100.00%    100.00% |           0      0.00%    100.00% |           0      0.00%    100.00% |           0      0.00%    100.00% |           0      0.00%    100.00% |           0      0.00%    100.00% |           0      0.00%    100.00% |           0      0.00%    100.00% |           0      0.00%    100.00% |           0      0.00%    100.00% |           0      0.00%    100.00% |           0      0.00%    100.00% |           0      0.00%    100.00% |           0      0.00%    100.00% |           0      0.00%    100.00% |           0      0.00%    100.00% |           0      0.00%    100.00% |           0      0.00%    100.00% |           0      0.00%    100.00% |           0      0.00%    100.00% |           0      0.00%    100.00% |           0      0.00%    100.00% |           0      0.00%    100.00% |           0      0.00%    100.00% |           0      0.00%    100.00% |           0      0.00%    100.00% |           0      0.00%    100.00% |           0      0.00%    100.00% |           0      0.00%    100.00% |           0      0.00%    100.00% |           0      0.00%    100.00% |           0      0.00%    100.00%
system.ruby.L2Cache_Controller.IM.L1_GETX::total            1                      
system.ruby.L2Cache_Controller.IM.Mem_Data |       40412      3.13%      3.13% |       40329      3.12%      6.25% |       40341      3.12%      9.38% |       40347      3.13%     12.50% |       40352      3.13%     15.63% |       40361      3.13%     18.76% |       40339      3.12%     21.88% |       40336      3.12%     25.00% |       40349      3.13%     28.13% |       40344      3.12%     31.25% |       40329      3.12%     34.38% |       40358      3.13%     37.50% |       40339      3.12%     40.63% |       40338      3.12%     43.75% |       40341      3.12%     46.88% |       40330      3.12%     50.00% |       40352      3.13%     53.13% |       40351      3.13%     56.25% |       40349      3.13%     59.38% |       40345      3.12%     62.50% |       40340      3.12%     65.63% |       40354      3.13%     68.75% |       40339      3.12%     71.88% |       40341      3.12%     75.00% |       40347      3.13%     78.13% |       40345      3.12%     81.25% |       40349      3.13%     84.38% |       40336      3.12%     87.50% |       40336      3.12%     90.63% |       40337      3.12%     93.75% |       40349      3.13%     96.88% |       40331      3.12%    100.00%
system.ruby.L2Cache_Controller.IM.Mem_Data::total      1291046                      
system.ruby.L2Cache_Controller.SS_MB.Exclusive_Unblock |           4      8.89%      8.89% |           6     13.33%     22.22% |           2      4.44%     26.67% |           6     13.33%     40.00% |           1      2.22%     42.22% |           0      0.00%     42.22% |           1      2.22%     44.44% |           0      0.00%     44.44% |           0      0.00%     44.44% |           1      2.22%     46.67% |           1      2.22%     48.89% |           0      0.00%     48.89% |           4      8.89%     57.78% |           0      0.00%     57.78% |           3      6.67%     64.44% |           0      0.00%     64.44% |           0      0.00%     64.44% |           0      0.00%     64.44% |           9     20.00%     84.44% |           0      0.00%     84.44% |           0      0.00%     84.44% |           0      0.00%     84.44% |           0      0.00%     84.44% |           0      0.00%     84.44% |           1      2.22%     86.67% |           2      4.44%     91.11% |           1      2.22%     93.33% |           1      2.22%     95.56% |           0      0.00%     95.56% |           1      2.22%     97.78% |           1      2.22%    100.00% |           0      0.00%    100.00%
system.ruby.L2Cache_Controller.SS_MB.Exclusive_Unblock::total           45                      
system.ruby.L2Cache_Controller.MT_MB.L1_PUTX |           2    100.00%    100.00% |           0      0.00%    100.00% |           0      0.00%    100.00% |           0      0.00%    100.00% |           0      0.00%    100.00% |           0      0.00%    100.00% |           0      0.00%    100.00% |           0      0.00%    100.00% |           0      0.00%    100.00% |           0      0.00%    100.00% |           0      0.00%    100.00% |           0      0.00%    100.00% |           0      0.00%    100.00% |           0      0.00%    100.00% |           0      0.00%    100.00% |           0      0.00%    100.00% |           0      0.00%    100.00% |           0      0.00%    100.00% |           0      0.00%    100.00% |           0      0.00%    100.00% |           0      0.00%    100.00% |           0      0.00%    100.00% |           0      0.00%    100.00% |           0      0.00%    100.00% |           0      0.00%    100.00% |           0      0.00%    100.00% |           0      0.00%    100.00% |           0      0.00%    100.00% |           0      0.00%    100.00% |           0      0.00%    100.00% |           0      0.00%    100.00% |           0      0.00%    100.00%
system.ruby.L2Cache_Controller.MT_MB.L1_PUTX::total            2                      
system.ruby.L2Cache_Controller.MT_MB.Exclusive_Unblock |      173285      8.49%      8.49% |       64259      3.15%     11.64% |       58760      2.88%     14.51% |       58461      2.86%     17.38% |       57797      2.83%     20.21% |       56500      2.77%     22.98% |       55007      2.69%     25.67% |       55300      2.71%     28.38% |       59165      2.90%     31.28% |       57720      2.83%     34.11% |       60647      2.97%     37.08% |       60209      2.95%     40.03% |       56860      2.79%     42.81% |       56794      2.78%     45.59% |       56447      2.77%     48.36% |       56867      2.79%     51.14% |       59183      2.90%     54.04% |       58515      2.87%     56.91% |       59885      2.93%     59.84% |       60877      2.98%     62.82% |       60909      2.98%     65.81% |       63096      3.09%     68.90% |       64325      3.15%     72.05% |       60550      2.97%     75.02% |       61089      2.99%     78.01% |       62469      3.06%     81.07% |       60797      2.98%     84.05% |       61417      3.01%     87.06% |       64095      3.14%     90.20% |       61916      3.03%     93.23% |       70030      3.43%     96.66% |       68218      3.34%    100.00%
system.ruby.L2Cache_Controller.MT_MB.Exclusive_Unblock::total      2041449                      
system.ruby.L2Cache_Controller.MT_IIB.WB_Data |           0      0.00%      0.00% |           0      0.00%      0.00% |           0      0.00%      0.00% |           0      0.00%      0.00% |           0      0.00%      0.00% |           1     50.00%     50.00% |           0      0.00%     50.00% |           0      0.00%     50.00% |           0      0.00%     50.00% |           0      0.00%     50.00% |           0      0.00%     50.00% |           0      0.00%     50.00% |           0      0.00%     50.00% |           0      0.00%     50.00% |           0      0.00%     50.00% |           0      0.00%     50.00% |           0      0.00%     50.00% |           0      0.00%     50.00% |           0      0.00%     50.00% |           0      0.00%     50.00% |           0      0.00%     50.00% |           0      0.00%     50.00% |           0      0.00%     50.00% |           0      0.00%     50.00% |           0      0.00%     50.00% |           0      0.00%     50.00% |           0      0.00%     50.00% |           0      0.00%     50.00% |           1     50.00%    100.00% |           0      0.00%    100.00% |           0      0.00%    100.00% |           0      0.00%    100.00%
system.ruby.L2Cache_Controller.MT_IIB.WB_Data::total            2                      
system.ruby.L2Cache_Controller.MT_IIB.WB_Data_clean |          14    100.00%    100.00% |           0      0.00%    100.00% |           0      0.00%    100.00% |           0      0.00%    100.00% |           0      0.00%    100.00% |           0      0.00%    100.00% |           0      0.00%    100.00% |           0      0.00%    100.00% |           0      0.00%    100.00% |           0      0.00%    100.00% |           0      0.00%    100.00% |           0      0.00%    100.00% |           0      0.00%    100.00% |           0      0.00%    100.00% |           0      0.00%    100.00% |           0      0.00%    100.00% |           0      0.00%    100.00% |           0      0.00%    100.00% |           0      0.00%    100.00% |           0      0.00%    100.00% |           0      0.00%    100.00% |           0      0.00%    100.00% |           0      0.00%    100.00% |           0      0.00%    100.00% |           0      0.00%    100.00% |           0      0.00%    100.00% |           0      0.00%    100.00% |           0      0.00%    100.00% |           0      0.00%    100.00% |           0      0.00%    100.00% |           0      0.00%    100.00% |           0      0.00%    100.00%
system.ruby.L2Cache_Controller.MT_IIB.WB_Data_clean::total           14                      
system.ruby.L2Cache_Controller.MT_SB.Unblock |          14     87.50%     87.50% |           0      0.00%     87.50% |           0      0.00%     87.50% |           0      0.00%     87.50% |           0      0.00%     87.50% |           1      6.25%     93.75% |           0      0.00%     93.75% |           0      0.00%     93.75% |           0      0.00%     93.75% |           0      0.00%     93.75% |           0      0.00%     93.75% |           0      0.00%     93.75% |           0      0.00%     93.75% |           0      0.00%     93.75% |           0      0.00%     93.75% |           0      0.00%     93.75% |           0      0.00%     93.75% |           0      0.00%     93.75% |           0      0.00%     93.75% |           0      0.00%     93.75% |           0      0.00%     93.75% |           0      0.00%     93.75% |           0      0.00%     93.75% |           0      0.00%     93.75% |           0      0.00%     93.75% |           0      0.00%     93.75% |           0      0.00%     93.75% |           0      0.00%     93.75% |           1      6.25%    100.00% |           0      0.00%    100.00% |           0      0.00%    100.00% |           0      0.00%    100.00%
system.ruby.L2Cache_Controller.MT_SB.Unblock::total           16                      
system.ruby.SimicsNetworkPortInterface_Controller.MessageSend |      120615     21.40%     21.40% |      281829     50.00%     71.40% |       20147      3.57%     74.97% |       21228      3.77%     78.74% |       19996      3.55%     82.29% |       21285      3.78%     86.06% |       20432      3.62%     89.69% |       21109      3.75%     93.43% |       17816      3.16%     96.59% |       19201      3.41%    100.00% |           0      0.00%    100.00% |           0      0.00%    100.00% |           0      0.00%    100.00% |           0      0.00%    100.00% |           0      0.00%    100.00% |           0      0.00%    100.00% |           0      0.00%    100.00% |           0      0.00%    100.00% |           0      0.00%    100.00% |           0      0.00%    100.00% |           0      0.00%    100.00% |           0      0.00%    100.00% |           0      0.00%    100.00% |           0      0.00%    100.00% |           0      0.00%    100.00% |           0      0.00%    100.00% |           0      0.00%    100.00% |           0      0.00%    100.00% |           0      0.00%    100.00% |           0      0.00%    100.00% |           0      0.00%    100.00% |           0      0.00%    100.00%
system.ruby.SimicsNetworkPortInterface_Controller.MessageSend::total       563658                      
system.ruby.SimicsNetworkPortInterface_Controller.MessageRecv |      120615     21.40%     21.40% |      281829     50.00%     71.40% |       20147      3.57%     74.97% |       21228      3.77%     78.74% |       19996      3.55%     82.29% |       21285      3.78%     86.06% |       20432      3.62%     89.69% |       21109      3.75%     93.43% |       17816      3.16%     96.59% |       19201      3.41%    100.00% |           0      0.00%    100.00% |           0      0.00%    100.00% |           0      0.00%    100.00% |           0      0.00%    100.00% |           0      0.00%    100.00% |           0      0.00%    100.00% |           0      0.00%    100.00% |           0      0.00%    100.00% |           0      0.00%    100.00% |           0      0.00%    100.00% |           0      0.00%    100.00% |           0      0.00%    100.00% |           0      0.00%    100.00% |           0      0.00%    100.00% |           0      0.00%    100.00% |           0      0.00%    100.00% |           0      0.00%    100.00% |           0      0.00%    100.00% |           0      0.00%    100.00% |           0      0.00%    100.00% |           0      0.00%    100.00% |           0      0.00%    100.00%
system.ruby.SimicsNetworkPortInterface_Controller.MessageRecv::total       563658                      
system.ruby.SimicsNetworkPortInterface_Controller.A.MessageSend |      120615     21.40%     21.40% |      281829     50.00%     71.40% |       20147      3.57%     74.97% |       21228      3.77%     78.74% |       19996      3.55%     82.29% |       21285      3.78%     86.06% |       20432      3.62%     89.69% |       21109      3.75%     93.43% |       17816      3.16%     96.59% |       19201      3.41%    100.00% |           0      0.00%    100.00% |           0      0.00%    100.00% |           0      0.00%    100.00% |           0      0.00%    100.00% |           0      0.00%    100.00% |           0      0.00%    100.00% |           0      0.00%    100.00% |           0      0.00%    100.00% |           0      0.00%    100.00% |           0      0.00%    100.00% |           0      0.00%    100.00% |           0      0.00%    100.00% |           0      0.00%    100.00% |           0      0.00%    100.00% |           0      0.00%    100.00% |           0      0.00%    100.00% |           0      0.00%    100.00% |           0      0.00%    100.00% |           0      0.00%    100.00% |           0      0.00%    100.00% |           0      0.00%    100.00% |           0      0.00%    100.00%
system.ruby.SimicsNetworkPortInterface_Controller.A.MessageSend::total       563658                      
system.ruby.SimicsNetworkPortInterface_Controller.A.MessageRecv |      120615     21.40%     21.40% |      281829     50.00%     71.40% |       20147      3.57%     74.97% |       21228      3.77%     78.74% |       19996      3.55%     82.29% |       21285      3.78%     86.06% |       20432      3.62%     89.69% |       21109      3.75%     93.43% |       17816      3.16%     96.59% |       19201      3.41%    100.00% |           0      0.00%    100.00% |           0      0.00%    100.00% |           0      0.00%    100.00% |           0      0.00%    100.00% |           0      0.00%    100.00% |           0      0.00%    100.00% |           0      0.00%    100.00% |           0      0.00%    100.00% |           0      0.00%    100.00% |           0      0.00%    100.00% |           0      0.00%    100.00% |           0      0.00%    100.00% |           0      0.00%    100.00% |           0      0.00%    100.00% |           0      0.00%    100.00% |           0      0.00%    100.00% |           0      0.00%    100.00% |           0      0.00%    100.00% |           0      0.00%    100.00% |           0      0.00%    100.00% |           0      0.00%    100.00% |           0      0.00%    100.00%
system.ruby.SimicsNetworkPortInterface_Controller.A.MessageRecv::total       563658                      
system.switch_cpus.kern.inst.arm                    0                       # number of arm instructions executed
system.switch_cpus.kern.inst.quiesce                0                       # number of quiesce instructions executed

---------- End Simulation Statistics   ----------
