
---------- Begin Simulation Statistics ----------
sim_seconds                                  0.056731                       # Number of seconds simulated
sim_ticks                                 56730748000                       # Number of ticks simulated
final_tick                               5232898826500                       # Number of ticks from beginning of simulation (restored from checkpoints and never reset)
sim_freq                                 1000000000000                       # Frequency of simulated ticks
host_inst_rate                                  14154                       # Simulator instruction rate (inst/s)
host_op_rate                                    25102                       # Simulator op (including micro ops) rate (op/s)
host_tick_rate                               35489473                       # Simulator tick rate (ticks/s)
host_mem_usage                                3558116                       # Number of bytes of host memory used
host_seconds                                  1598.52                       # Real time elapsed on the host
sim_insts                                    22625537                       # Number of instructions simulated
sim_ops                                      40125880                       # Number of ops (including micro ops) simulated
system.voltage_domain.voltage                       1                       # Voltage in Volts
system.clk_domain.clock                           500                       # Clock period in ticks
system.mem_ctrls0.bytes_read::ruby.dir_cntrl0     12633984                       # Number of bytes read from this memory
system.mem_ctrls0.bytes_read::total          12633984                       # Number of bytes read from this memory
system.mem_ctrls0.bytes_written::ruby.dir_cntrl0      8047552                       # Number of bytes written to this memory
system.mem_ctrls0.bytes_written::total        8047552                       # Number of bytes written to this memory
system.mem_ctrls0.num_reads::ruby.dir_cntrl0       197406                       # Number of read requests responded to by this memory
system.mem_ctrls0.num_reads::total             197406                       # Number of read requests responded to by this memory
system.mem_ctrls0.num_writes::ruby.dir_cntrl0       125743                       # Number of write requests responded to by this memory
system.mem_ctrls0.num_writes::total            125743                       # Number of write requests responded to by this memory
system.mem_ctrls0.bw_read::ruby.dir_cntrl0    222700818                       # Total read bandwidth from this memory (bytes/s)
system.mem_ctrls0.bw_read::total            222700818                       # Total read bandwidth from this memory (bytes/s)
system.mem_ctrls0.bw_write::ruby.dir_cntrl0    141855207                       # Write bandwidth from this memory (bytes/s)
system.mem_ctrls0.bw_write::total           141855207                       # Write bandwidth from this memory (bytes/s)
system.mem_ctrls0.bw_total::ruby.dir_cntrl0    364556025                       # Total bandwidth to/from this memory (bytes/s)
system.mem_ctrls0.bw_total::total           364556025                       # Total bandwidth to/from this memory (bytes/s)
system.mem_ctrls0.readReqs                     197407                       # Number of read requests accepted
system.mem_ctrls0.writeReqs                    125743                       # Number of write requests accepted
system.mem_ctrls0.readBursts                   197407                       # Number of DRAM read bursts, including those serviced by the write queue
system.mem_ctrls0.writeBursts                  125743                       # Number of DRAM write bursts, including those merged in the write queue
system.mem_ctrls0.bytesReadDRAM              12632384                       # Total number of bytes read from DRAM
system.mem_ctrls0.bytesReadWrQ                   1600                       # Total number of bytes read from write queue
system.mem_ctrls0.bytesWritten                8047360                       # Total number of bytes written to DRAM
system.mem_ctrls0.bytesReadSys               12634048                       # Total read bytes from the system interface side
system.mem_ctrls0.bytesWrittenSys             8047552                       # Total written bytes from the system interface side
system.mem_ctrls0.servicedByWrQ                    25                       # Number of DRAM read bursts serviced by the write queue
system.mem_ctrls0.mergedWrBursts                    0                       # Number of DRAM write bursts merged with an existing one
system.mem_ctrls0.neitherReadNorWriteReqs            0                       # Number of requests that are neither read nor write
system.mem_ctrls0.perBankRdBursts::0            12085                       # Per bank write bursts
system.mem_ctrls0.perBankRdBursts::1            12192                       # Per bank write bursts
system.mem_ctrls0.perBankRdBursts::2            12069                       # Per bank write bursts
system.mem_ctrls0.perBankRdBursts::3            12433                       # Per bank write bursts
system.mem_ctrls0.perBankRdBursts::4            12216                       # Per bank write bursts
system.mem_ctrls0.perBankRdBursts::5            12285                       # Per bank write bursts
system.mem_ctrls0.perBankRdBursts::6            12506                       # Per bank write bursts
system.mem_ctrls0.perBankRdBursts::7            12666                       # Per bank write bursts
system.mem_ctrls0.perBankRdBursts::8            12428                       # Per bank write bursts
system.mem_ctrls0.perBankRdBursts::9            12807                       # Per bank write bursts
system.mem_ctrls0.perBankRdBursts::10           12435                       # Per bank write bursts
system.mem_ctrls0.perBankRdBursts::11           12749                       # Per bank write bursts
system.mem_ctrls0.perBankRdBursts::12           12268                       # Per bank write bursts
system.mem_ctrls0.perBankRdBursts::13           12029                       # Per bank write bursts
system.mem_ctrls0.perBankRdBursts::14           12309                       # Per bank write bursts
system.mem_ctrls0.perBankRdBursts::15           11904                       # Per bank write bursts
system.mem_ctrls0.perBankWrBursts::0             7800                       # Per bank write bursts
system.mem_ctrls0.perBankWrBursts::1             7658                       # Per bank write bursts
system.mem_ctrls0.perBankWrBursts::2             7813                       # Per bank write bursts
system.mem_ctrls0.perBankWrBursts::3             7841                       # Per bank write bursts
system.mem_ctrls0.perBankWrBursts::4             7805                       # Per bank write bursts
system.mem_ctrls0.perBankWrBursts::5             7891                       # Per bank write bursts
system.mem_ctrls0.perBankWrBursts::6             7995                       # Per bank write bursts
system.mem_ctrls0.perBankWrBursts::7             8021                       # Per bank write bursts
system.mem_ctrls0.perBankWrBursts::8             7928                       # Per bank write bursts
system.mem_ctrls0.perBankWrBursts::9             8083                       # Per bank write bursts
system.mem_ctrls0.perBankWrBursts::10            7892                       # Per bank write bursts
system.mem_ctrls0.perBankWrBursts::11            7924                       # Per bank write bursts
system.mem_ctrls0.perBankWrBursts::12            7760                       # Per bank write bursts
system.mem_ctrls0.perBankWrBursts::13            7818                       # Per bank write bursts
system.mem_ctrls0.perBankWrBursts::14            7881                       # Per bank write bursts
system.mem_ctrls0.perBankWrBursts::15            7630                       # Per bank write bursts
system.mem_ctrls0.numRdRetry                    70826                       # Number of times read queue was full causing retry
system.mem_ctrls0.numWrRetry                     7072                       # Number of times write queue was full causing retry
system.mem_ctrls0.totGap                  56730495500                       # Total gap between requests
system.mem_ctrls0.readPktSize::0                    0                       # Read request sizes (log2)
system.mem_ctrls0.readPktSize::1                    0                       # Read request sizes (log2)
system.mem_ctrls0.readPktSize::2                    0                       # Read request sizes (log2)
system.mem_ctrls0.readPktSize::3                    0                       # Read request sizes (log2)
system.mem_ctrls0.readPktSize::4                    0                       # Read request sizes (log2)
system.mem_ctrls0.readPktSize::5                    0                       # Read request sizes (log2)
system.mem_ctrls0.readPktSize::6               197407                       # Read request sizes (log2)
system.mem_ctrls0.writePktSize::0                   0                       # Write request sizes (log2)
system.mem_ctrls0.writePktSize::1                   0                       # Write request sizes (log2)
system.mem_ctrls0.writePktSize::2                   0                       # Write request sizes (log2)
system.mem_ctrls0.writePktSize::3                   0                       # Write request sizes (log2)
system.mem_ctrls0.writePktSize::4                   0                       # Write request sizes (log2)
system.mem_ctrls0.writePktSize::5                   0                       # Write request sizes (log2)
system.mem_ctrls0.writePktSize::6              125743                       # Write request sizes (log2)
system.mem_ctrls0.rdQLenPdf::0                  68949                       # What read queue length does an incoming req see
system.mem_ctrls0.rdQLenPdf::1                   3097                       # What read queue length does an incoming req see
system.mem_ctrls0.rdQLenPdf::2                   1920                       # What read queue length does an incoming req see
system.mem_ctrls0.rdQLenPdf::3                   1333                       # What read queue length does an incoming req see
system.mem_ctrls0.rdQLenPdf::4                   1323                       # What read queue length does an incoming req see
system.mem_ctrls0.rdQLenPdf::5                   1403                       # What read queue length does an incoming req see
system.mem_ctrls0.rdQLenPdf::6                   1519                       # What read queue length does an incoming req see
system.mem_ctrls0.rdQLenPdf::7                   1547                       # What read queue length does an incoming req see
system.mem_ctrls0.rdQLenPdf::8                   1536                       # What read queue length does an incoming req see
system.mem_ctrls0.rdQLenPdf::9                   1574                       # What read queue length does an incoming req see
system.mem_ctrls0.rdQLenPdf::10                  1600                       # What read queue length does an incoming req see
system.mem_ctrls0.rdQLenPdf::11                  1629                       # What read queue length does an incoming req see
system.mem_ctrls0.rdQLenPdf::12                  1661                       # What read queue length does an incoming req see
system.mem_ctrls0.rdQLenPdf::13                  1710                       # What read queue length does an incoming req see
system.mem_ctrls0.rdQLenPdf::14                  1633                       # What read queue length does an incoming req see
system.mem_ctrls0.rdQLenPdf::15                  1722                       # What read queue length does an incoming req see
system.mem_ctrls0.rdQLenPdf::16                  1802                       # What read queue length does an incoming req see
system.mem_ctrls0.rdQLenPdf::17                  1783                       # What read queue length does an incoming req see
system.mem_ctrls0.rdQLenPdf::18                  1760                       # What read queue length does an incoming req see
system.mem_ctrls0.rdQLenPdf::19                  1779                       # What read queue length does an incoming req see
system.mem_ctrls0.rdQLenPdf::20                  1817                       # What read queue length does an incoming req see
system.mem_ctrls0.rdQLenPdf::21                  1857                       # What read queue length does an incoming req see
system.mem_ctrls0.rdQLenPdf::22                  1864                       # What read queue length does an incoming req see
system.mem_ctrls0.rdQLenPdf::23                  1845                       # What read queue length does an incoming req see
system.mem_ctrls0.rdQLenPdf::24                  1898                       # What read queue length does an incoming req see
system.mem_ctrls0.rdQLenPdf::25                  1882                       # What read queue length does an incoming req see
system.mem_ctrls0.rdQLenPdf::26                  1936                       # What read queue length does an incoming req see
system.mem_ctrls0.rdQLenPdf::27                  2153                       # What read queue length does an incoming req see
system.mem_ctrls0.rdQLenPdf::28                  2097                       # What read queue length does an incoming req see
system.mem_ctrls0.rdQLenPdf::29                  2232                       # What read queue length does an incoming req see
system.mem_ctrls0.rdQLenPdf::30                  2449                       # What read queue length does an incoming req see
system.mem_ctrls0.rdQLenPdf::31                 74072                       # What read queue length does an incoming req see
system.mem_ctrls0.wrQLenPdf::0                  16819                       # What write queue length does an incoming req see
system.mem_ctrls0.wrQLenPdf::1                  18293                       # What write queue length does an incoming req see
system.mem_ctrls0.wrQLenPdf::2                  19095                       # What write queue length does an incoming req see
system.mem_ctrls0.wrQLenPdf::3                  19435                       # What write queue length does an incoming req see
system.mem_ctrls0.wrQLenPdf::4                  19932                       # What write queue length does an incoming req see
system.mem_ctrls0.wrQLenPdf::5                   8212                       # What write queue length does an incoming req see
system.mem_ctrls0.wrQLenPdf::6                   9443                       # What write queue length does an incoming req see
system.mem_ctrls0.wrQLenPdf::7                  14514                       # What write queue length does an incoming req see
system.mem_ctrls0.bytesPerActivate::samples        82664                       # Bytes accessed per row activation
system.mem_ctrls0.bytesPerActivate::mean   250.166263                       # Bytes accessed per row activation
system.mem_ctrls0.bytesPerActivate::gmean   177.888224                       # Bytes accessed per row activation
system.mem_ctrls0.bytesPerActivate::stdev   221.234689                       # Bytes accessed per row activation
system.mem_ctrls0.bytesPerActivate::0-127        25091     30.35%     30.35% # Bytes accessed per row activation
system.mem_ctrls0.bytesPerActivate::128-255        20913     25.30%     55.65% # Bytes accessed per row activation
system.mem_ctrls0.bytesPerActivate::256-383        21631     26.17%     81.82% # Bytes accessed per row activation
system.mem_ctrls0.bytesPerActivate::384-511         5158      6.24%     88.06% # Bytes accessed per row activation
system.mem_ctrls0.bytesPerActivate::512-639         3636      4.40%     92.46% # Bytes accessed per row activation
system.mem_ctrls0.bytesPerActivate::640-767         1877      2.27%     94.73% # Bytes accessed per row activation
system.mem_ctrls0.bytesPerActivate::768-895         1198      1.45%     96.18% # Bytes accessed per row activation
system.mem_ctrls0.bytesPerActivate::896-1023          806      0.98%     97.15% # Bytes accessed per row activation
system.mem_ctrls0.bytesPerActivate::1024-1151         2354      2.85%    100.00% # Bytes accessed per row activation
system.mem_ctrls0.bytesPerActivate::total        82664                       # Bytes accessed per row activation
system.mem_ctrls0.rdPerTurnAround::samples        17579                       # Reads before turning the bus around for writes
system.mem_ctrls0.rdPerTurnAround::mean     11.227999                       # Reads before turning the bus around for writes
system.mem_ctrls0.rdPerTurnAround::stdev    32.169147                       # Reads before turning the bus around for writes
system.mem_ctrls0.rdPerTurnAround::0-127        17570     99.95%     99.95% # Reads before turning the bus around for writes
system.mem_ctrls0.rdPerTurnAround::128-255            8      0.05%     99.99% # Reads before turning the bus around for writes
system.mem_ctrls0.rdPerTurnAround::3968-4095            1      0.01%    100.00% # Reads before turning the bus around for writes
system.mem_ctrls0.rdPerTurnAround::total        17579                       # Reads before turning the bus around for writes
system.mem_ctrls0.wrPerTurnAround::samples        17579                       # Writes before turning the bus around for reads
system.mem_ctrls0.wrPerTurnAround::mean      7.152853                       # Writes before turning the bus around for reads
system.mem_ctrls0.wrPerTurnAround::gmean     6.488327                       # Writes before turning the bus around for reads
system.mem_ctrls0.wrPerTurnAround::stdev     3.605080                       # Writes before turning the bus around for reads
system.mem_ctrls0.wrPerTurnAround::4-7          12600     71.68%     71.68% # Writes before turning the bus around for reads
system.mem_ctrls0.wrPerTurnAround::8-11          2098     11.93%     83.61% # Writes before turning the bus around for reads
system.mem_ctrls0.wrPerTurnAround::12-15         1739      9.89%     93.50% # Writes before turning the bus around for reads
system.mem_ctrls0.wrPerTurnAround::16-19         1142      6.50%    100.00% # Writes before turning the bus around for reads
system.mem_ctrls0.wrPerTurnAround::total        17579                       # Writes before turning the bus around for reads
system.mem_ctrls0.totQLat                 32455881760                       # Total ticks spent queuing
system.mem_ctrls0.totMemAccLat            36156775510                       # Total ticks spent from burst creation until serviced by the DRAM
system.mem_ctrls0.totBusLat                 986905000                       # Total ticks spent in databus transfers
system.mem_ctrls0.avgQLat                   164431.82                       # Average queueing delay per DRAM burst
system.mem_ctrls0.avgBusLat                   4999.97                       # Average bus latency per DRAM burst
system.mem_ctrls0.avgMemAccLat              183181.73                       # Average memory access latency per DRAM burst
system.mem_ctrls0.avgRdBW                      222.67                       # Average DRAM read bandwidth in MiByte/s
system.mem_ctrls0.avgWrBW                      141.85                       # Average achieved write bandwidth in MiByte/s
system.mem_ctrls0.avgRdBWSys                   222.70                       # Average system read bandwidth in MiByte/s
system.mem_ctrls0.avgWrBWSys                   141.86                       # Average system write bandwidth in MiByte/s
system.mem_ctrls0.peakBW                     12800.00                       # Theoretical peak bandwidth in MiByte/s
system.mem_ctrls0.busUtil                        2.85                       # Data bus utilization in percentage
system.mem_ctrls0.busUtilRead                    1.74                       # Data bus utilization in percentage for reads
system.mem_ctrls0.busUtilWrite                   1.11                       # Data bus utilization in percentage for writes
system.mem_ctrls0.avgRdQLen                      1.60                       # Average read queue length when enqueuing
system.mem_ctrls0.avgWrQLen                      2.93                       # Average write queue length when enqueuing
system.mem_ctrls0.readRowHits                  155457                       # Number of row buffer hits during reads
system.mem_ctrls0.writeRowHits                  85000                       # Number of row buffer hits during writes
system.mem_ctrls0.readRowHitRate                78.76                       # Row buffer hit rate for reads
system.mem_ctrls0.writeRowHitRate               67.60                       # Row buffer hit rate for writes
system.mem_ctrls0.avgGap                    175554.68                       # Average gap between requests
system.mem_ctrls0.pageHitRate                   74.42                       # Row buffer hit rate, read and write combined
system.mem_ctrls0.memoryStateTime::IDLE   11627443250                       # Time in different power states
system.mem_ctrls0.memoryStateTime::REF     1894100000                       # Time in different power states
system.mem_ctrls0.memoryStateTime::PRE_PDN            0                       # Time in different power states
system.mem_ctrls0.memoryStateTime::ACT    43209088000                       # Time in different power states
system.mem_ctrls0.memoryStateTime::ACT_PDN            0                       # Time in different power states
system.mem_ctrls0.actEnergy::0              315713160                       # Energy for activate commands per rank (pJ)
system.mem_ctrls0.actEnergy::1              309226680                       # Energy for activate commands per rank (pJ)
system.mem_ctrls0.preEnergy::0              172264125                       # Energy for precharge commands per rank (pJ)
system.mem_ctrls0.preEnergy::1              168724875                       # Energy for precharge commands per rank (pJ)
system.mem_ctrls0.readEnergy::0             767925600                       # Energy for read commands per rank (pJ)
system.mem_ctrls0.readEnergy::1             771646200                       # Energy for read commands per rank (pJ)
system.mem_ctrls0.writeEnergy::0            407099520                       # Energy for write commands per rank (pJ)
system.mem_ctrls0.writeEnergy::1            407695680                       # Energy for write commands per rank (pJ)
system.mem_ctrls0.refreshEnergy::0         3705368160                       # Energy for refresh commands per rank (pJ)
system.mem_ctrls0.refreshEnergy::1         3705368160                       # Energy for refresh commands per rank (pJ)
system.mem_ctrls0.actBackEnergy::0        22310897535                       # Energy for active background per rank (pJ)
system.mem_ctrls0.actBackEnergy::1        21789588645                       # Energy for active background per rank (pJ)
system.mem_ctrls0.preBackEnergy::0        14467563750                       # Energy for precharge background per rank (pJ)
system.mem_ctrls0.preBackEnergy::1        14924852250                       # Energy for precharge background per rank (pJ)
system.mem_ctrls0.totalEnergy::0          42146831850                       # Total energy per rank (pJ)
system.mem_ctrls0.totalEnergy::1          42077102490                       # Total energy per rank (pJ)
system.mem_ctrls0.averagePower::0          742.925788                       # Core power per rank (mW)
system.mem_ctrls0.averagePower::1          741.696662                       # Core power per rank (mW)
system.mem_ctrls1.bytes_read::ruby.dir_cntrl1     12406464                       # Number of bytes read from this memory
system.mem_ctrls1.bytes_read::total          12406464                       # Number of bytes read from this memory
system.mem_ctrls1.bytes_written::ruby.dir_cntrl1      7830080                       # Number of bytes written to this memory
system.mem_ctrls1.bytes_written::total        7830080                       # Number of bytes written to this memory
system.mem_ctrls1.num_reads::ruby.dir_cntrl1       193851                       # Number of read requests responded to by this memory
system.mem_ctrls1.num_reads::total             193851                       # Number of read requests responded to by this memory
system.mem_ctrls1.num_writes::ruby.dir_cntrl1       122345                       # Number of write requests responded to by this memory
system.mem_ctrls1.num_writes::total            122345                       # Number of write requests responded to by this memory
system.mem_ctrls1.bw_read::ruby.dir_cntrl1    218690295                       # Total read bandwidth from this memory (bytes/s)
system.mem_ctrls1.bw_read::total            218690295                       # Total read bandwidth from this memory (bytes/s)
system.mem_ctrls1.bw_write::ruby.dir_cntrl1    138021801                       # Write bandwidth from this memory (bytes/s)
system.mem_ctrls1.bw_write::total           138021801                       # Write bandwidth from this memory (bytes/s)
system.mem_ctrls1.bw_total::ruby.dir_cntrl1    356712096                       # Total bandwidth to/from this memory (bytes/s)
system.mem_ctrls1.bw_total::total           356712096                       # Total bandwidth to/from this memory (bytes/s)
system.mem_ctrls1.readReqs                     193851                       # Number of read requests accepted
system.mem_ctrls1.writeReqs                    122345                       # Number of write requests accepted
system.mem_ctrls1.readBursts                   193851                       # Number of DRAM read bursts, including those serviced by the write queue
system.mem_ctrls1.writeBursts                  122345                       # Number of DRAM write bursts, including those merged in the write queue
system.mem_ctrls1.bytesReadDRAM              12404864                       # Total number of bytes read from DRAM
system.mem_ctrls1.bytesReadWrQ                   1600                       # Total number of bytes read from write queue
system.mem_ctrls1.bytesWritten                7830080                       # Total number of bytes written to DRAM
system.mem_ctrls1.bytesReadSys               12406464                       # Total read bytes from the system interface side
system.mem_ctrls1.bytesWrittenSys             7830080                       # Total written bytes from the system interface side
system.mem_ctrls1.servicedByWrQ                    25                       # Number of DRAM read bursts serviced by the write queue
system.mem_ctrls1.mergedWrBursts                    0                       # Number of DRAM write bursts merged with an existing one
system.mem_ctrls1.neitherReadNorWriteReqs            0                       # Number of requests that are neither read nor write
system.mem_ctrls1.perBankRdBursts::0            11875                       # Per bank write bursts
system.mem_ctrls1.perBankRdBursts::1            11971                       # Per bank write bursts
system.mem_ctrls1.perBankRdBursts::2            11840                       # Per bank write bursts
system.mem_ctrls1.perBankRdBursts::3            12195                       # Per bank write bursts
system.mem_ctrls1.perBankRdBursts::4            12014                       # Per bank write bursts
system.mem_ctrls1.perBankRdBursts::5            12099                       # Per bank write bursts
system.mem_ctrls1.perBankRdBursts::6            12321                       # Per bank write bursts
system.mem_ctrls1.perBankRdBursts::7            12454                       # Per bank write bursts
system.mem_ctrls1.perBankRdBursts::8            12194                       # Per bank write bursts
system.mem_ctrls1.perBankRdBursts::9            12576                       # Per bank write bursts
system.mem_ctrls1.perBankRdBursts::10           12198                       # Per bank write bursts
system.mem_ctrls1.perBankRdBursts::11           12553                       # Per bank write bursts
system.mem_ctrls1.perBankRdBursts::12           12036                       # Per bank write bursts
system.mem_ctrls1.perBankRdBursts::13           11801                       # Per bank write bursts
system.mem_ctrls1.perBankRdBursts::14           11999                       # Per bank write bursts
system.mem_ctrls1.perBankRdBursts::15           11700                       # Per bank write bursts
system.mem_ctrls1.perBankWrBursts::0             7597                       # Per bank write bursts
system.mem_ctrls1.perBankWrBursts::1             7467                       # Per bank write bursts
system.mem_ctrls1.perBankWrBursts::2             7608                       # Per bank write bursts
system.mem_ctrls1.perBankWrBursts::3             7630                       # Per bank write bursts
system.mem_ctrls1.perBankWrBursts::4             7607                       # Per bank write bursts
system.mem_ctrls1.perBankWrBursts::5             7693                       # Per bank write bursts
system.mem_ctrls1.perBankWrBursts::6             7774                       # Per bank write bursts
system.mem_ctrls1.perBankWrBursts::7             7804                       # Per bank write bursts
system.mem_ctrls1.perBankWrBursts::8             7717                       # Per bank write bursts
system.mem_ctrls1.perBankWrBursts::9             7868                       # Per bank write bursts
system.mem_ctrls1.perBankWrBursts::10            7674                       # Per bank write bursts
system.mem_ctrls1.perBankWrBursts::11            7711                       # Per bank write bursts
system.mem_ctrls1.perBankWrBursts::12            7550                       # Per bank write bursts
system.mem_ctrls1.perBankWrBursts::13            7603                       # Per bank write bursts
system.mem_ctrls1.perBankWrBursts::14            7613                       # Per bank write bursts
system.mem_ctrls1.perBankWrBursts::15            7429                       # Per bank write bursts
system.mem_ctrls1.numRdRetry                    60796                       # Number of times read queue was full causing retry
system.mem_ctrls1.numWrRetry                     6821                       # Number of times write queue was full causing retry
system.mem_ctrls1.totGap                  56729962000                       # Total gap between requests
system.mem_ctrls1.readPktSize::0                    0                       # Read request sizes (log2)
system.mem_ctrls1.readPktSize::1                    0                       # Read request sizes (log2)
system.mem_ctrls1.readPktSize::2                    0                       # Read request sizes (log2)
system.mem_ctrls1.readPktSize::3                    0                       # Read request sizes (log2)
system.mem_ctrls1.readPktSize::4                    0                       # Read request sizes (log2)
system.mem_ctrls1.readPktSize::5                    0                       # Read request sizes (log2)
system.mem_ctrls1.readPktSize::6               193851                       # Read request sizes (log2)
system.mem_ctrls1.writePktSize::0                   0                       # Write request sizes (log2)
system.mem_ctrls1.writePktSize::1                   0                       # Write request sizes (log2)
system.mem_ctrls1.writePktSize::2                   0                       # Write request sizes (log2)
system.mem_ctrls1.writePktSize::3                   0                       # Write request sizes (log2)
system.mem_ctrls1.writePktSize::4                   0                       # Write request sizes (log2)
system.mem_ctrls1.writePktSize::5                   0                       # Write request sizes (log2)
system.mem_ctrls1.writePktSize::6              122345                       # Write request sizes (log2)
system.mem_ctrls1.rdQLenPdf::0                  67767                       # What read queue length does an incoming req see
system.mem_ctrls1.rdQLenPdf::1                   1807                       # What read queue length does an incoming req see
system.mem_ctrls1.rdQLenPdf::2                   1454                       # What read queue length does an incoming req see
system.mem_ctrls1.rdQLenPdf::3                   1523                       # What read queue length does an incoming req see
system.mem_ctrls1.rdQLenPdf::4                   1554                       # What read queue length does an incoming req see
system.mem_ctrls1.rdQLenPdf::5                   1693                       # What read queue length does an incoming req see
system.mem_ctrls1.rdQLenPdf::6                   1757                       # What read queue length does an incoming req see
system.mem_ctrls1.rdQLenPdf::7                   1839                       # What read queue length does an incoming req see
system.mem_ctrls1.rdQLenPdf::8                   1891                       # What read queue length does an incoming req see
system.mem_ctrls1.rdQLenPdf::9                   1925                       # What read queue length does an incoming req see
system.mem_ctrls1.rdQLenPdf::10                  1947                       # What read queue length does an incoming req see
system.mem_ctrls1.rdQLenPdf::11                  1937                       # What read queue length does an incoming req see
system.mem_ctrls1.rdQLenPdf::12                  1945                       # What read queue length does an incoming req see
system.mem_ctrls1.rdQLenPdf::13                  2008                       # What read queue length does an incoming req see
system.mem_ctrls1.rdQLenPdf::14                  2051                       # What read queue length does an incoming req see
system.mem_ctrls1.rdQLenPdf::15                  2107                       # What read queue length does an incoming req see
system.mem_ctrls1.rdQLenPdf::16                  2218                       # What read queue length does an incoming req see
system.mem_ctrls1.rdQLenPdf::17                  2176                       # What read queue length does an incoming req see
system.mem_ctrls1.rdQLenPdf::18                  2111                       # What read queue length does an incoming req see
system.mem_ctrls1.rdQLenPdf::19                  2122                       # What read queue length does an incoming req see
system.mem_ctrls1.rdQLenPdf::20                  2234                       # What read queue length does an incoming req see
system.mem_ctrls1.rdQLenPdf::21                  2210                       # What read queue length does an incoming req see
system.mem_ctrls1.rdQLenPdf::22                  2193                       # What read queue length does an incoming req see
system.mem_ctrls1.rdQLenPdf::23                  2154                       # What read queue length does an incoming req see
system.mem_ctrls1.rdQLenPdf::24                  2068                       # What read queue length does an incoming req see
system.mem_ctrls1.rdQLenPdf::25                  2176                       # What read queue length does an incoming req see
system.mem_ctrls1.rdQLenPdf::26                  2313                       # What read queue length does an incoming req see
system.mem_ctrls1.rdQLenPdf::27                  2402                       # What read queue length does an incoming req see
system.mem_ctrls1.rdQLenPdf::28                  2405                       # What read queue length does an incoming req see
system.mem_ctrls1.rdQLenPdf::29                  2567                       # What read queue length does an incoming req see
system.mem_ctrls1.rdQLenPdf::30                  2831                       # What read queue length does an incoming req see
system.mem_ctrls1.rdQLenPdf::31                 64441                       # What read queue length does an incoming req see
system.mem_ctrls1.wrQLenPdf::0                  16298                       # What write queue length does an incoming req see
system.mem_ctrls1.wrQLenPdf::1                  17849                       # What write queue length does an incoming req see
system.mem_ctrls1.wrQLenPdf::2                  18563                       # What write queue length does an incoming req see
system.mem_ctrls1.wrQLenPdf::3                  18949                       # What write queue length does an incoming req see
system.mem_ctrls1.wrQLenPdf::4                  19476                       # What write queue length does an incoming req see
system.mem_ctrls1.wrQLenPdf::5                   8060                       # What write queue length does an incoming req see
system.mem_ctrls1.wrQLenPdf::6                   9281                       # What write queue length does an incoming req see
system.mem_ctrls1.wrQLenPdf::7                  13869                       # What write queue length does an incoming req see
system.mem_ctrls1.bytesPerActivate::samples        75379                       # Bytes accessed per row activation
system.mem_ctrls1.bytesPerActivate::mean   268.442723                       # Bytes accessed per row activation
system.mem_ctrls1.bytesPerActivate::gmean   195.222378                       # Bytes accessed per row activation
system.mem_ctrls1.bytesPerActivate::stdev   225.323201                       # Bytes accessed per row activation
system.mem_ctrls1.bytesPerActivate::0-127        18657     24.75%     24.75% # Bytes accessed per row activation
system.mem_ctrls1.bytesPerActivate::128-255        19898     26.40%     51.15% # Bytes accessed per row activation
system.mem_ctrls1.bytesPerActivate::256-383        21700     28.79%     79.94% # Bytes accessed per row activation
system.mem_ctrls1.bytesPerActivate::384-511         5140      6.82%     86.75% # Bytes accessed per row activation
system.mem_ctrls1.bytesPerActivate::512-639         3693      4.90%     91.65% # Bytes accessed per row activation
system.mem_ctrls1.bytesPerActivate::640-767         1841      2.44%     94.10% # Bytes accessed per row activation
system.mem_ctrls1.bytesPerActivate::768-895         1233      1.64%     95.73% # Bytes accessed per row activation
system.mem_ctrls1.bytesPerActivate::896-1023          821      1.09%     96.82% # Bytes accessed per row activation
system.mem_ctrls1.bytesPerActivate::1024-1151         2396      3.18%    100.00% # Bytes accessed per row activation
system.mem_ctrls1.bytesPerActivate::total        75379                       # Bytes accessed per row activation
system.mem_ctrls1.rdPerTurnAround::samples        17065                       # Reads before turning the bus around for writes
system.mem_ctrls1.rdPerTurnAround::mean     11.358101                       # Reads before turning the bus around for writes
system.mem_ctrls1.rdPerTurnAround::stdev    26.564070                       # Reads before turning the bus around for writes
system.mem_ctrls1.rdPerTurnAround::0-127        17058     99.96%     99.96% # Reads before turning the bus around for writes
system.mem_ctrls1.rdPerTurnAround::128-255            5      0.03%     99.99% # Reads before turning the bus around for writes
system.mem_ctrls1.rdPerTurnAround::1152-1279            1      0.01%     99.99% # Reads before turning the bus around for writes
system.mem_ctrls1.rdPerTurnAround::2816-2943            1      0.01%    100.00% # Reads before turning the bus around for writes
system.mem_ctrls1.rdPerTurnAround::total        17065                       # Reads before turning the bus around for writes
system.mem_ctrls1.wrPerTurnAround::samples        17065                       # Writes before turning the bus around for reads
system.mem_ctrls1.wrPerTurnAround::mean      7.169352                       # Writes before turning the bus around for reads
system.mem_ctrls1.wrPerTurnAround::gmean     6.499690                       # Writes before turning the bus around for reads
system.mem_ctrls1.wrPerTurnAround::stdev     3.618098                       # Writes before turning the bus around for reads
system.mem_ctrls1.wrPerTurnAround::4-7          12140     71.14%     71.14% # Writes before turning the bus around for reads
system.mem_ctrls1.wrPerTurnAround::8-11          2112     12.38%     83.52% # Writes before turning the bus around for reads
system.mem_ctrls1.wrPerTurnAround::12-15         1703      9.98%     93.50% # Writes before turning the bus around for reads
system.mem_ctrls1.wrPerTurnAround::16-19         1110      6.50%    100.00% # Writes before turning the bus around for reads
system.mem_ctrls1.wrPerTurnAround::total        17065                       # Writes before turning the bus around for reads
system.mem_ctrls1.totQLat                 30742934964                       # Total ticks spent queuing
system.mem_ctrls1.totMemAccLat            34377172464                       # Total ticks spent from burst creation until serviced by the DRAM
system.mem_ctrls1.totBusLat                 969130000                       # Total ticks spent in databus transfers
system.mem_ctrls1.avgQLat                   158611.00                       # Average queueing delay per DRAM burst
system.mem_ctrls1.avgBusLat                   5000.00                       # Average bus latency per DRAM burst
system.mem_ctrls1.avgMemAccLat              177361.00                       # Average memory access latency per DRAM burst
system.mem_ctrls1.avgRdBW                      218.66                       # Average DRAM read bandwidth in MiByte/s
system.mem_ctrls1.avgWrBW                      138.02                       # Average achieved write bandwidth in MiByte/s
system.mem_ctrls1.avgRdBWSys                   218.69                       # Average system read bandwidth in MiByte/s
system.mem_ctrls1.avgWrBWSys                   138.02                       # Average system write bandwidth in MiByte/s
system.mem_ctrls1.peakBW                     12800.00                       # Theoretical peak bandwidth in MiByte/s
system.mem_ctrls1.busUtil                        2.79                       # Data bus utilization in percentage
system.mem_ctrls1.busUtilRead                    1.71                       # Data bus utilization in percentage for reads
system.mem_ctrls1.busUtilWrite                   1.08                       # Data bus utilization in percentage for writes
system.mem_ctrls1.avgRdQLen                      1.57                       # Average read queue length when enqueuing
system.mem_ctrls1.avgWrQLen                      2.97                       # Average write queue length when enqueuing
system.mem_ctrls1.readRowHits                  154313                       # Number of row buffer hits during reads
system.mem_ctrls1.writeRowHits                  86479                       # Number of row buffer hits during writes
system.mem_ctrls1.readRowHitRate                79.61                       # Row buffer hit rate for reads
system.mem_ctrls1.writeRowHitRate               70.68                       # Row buffer hit rate for writes
system.mem_ctrls1.avgGap                    179413.91                       # Average gap between requests
system.mem_ctrls1.pageHitRate                   76.16                       # Row buffer hit rate, read and write combined
system.mem_ctrls1.memoryStateTime::IDLE   11893123000                       # Time in different power states
system.mem_ctrls1.memoryStateTime::REF     1894100000                       # Time in different power states
system.mem_ctrls1.memoryStateTime::PRE_PDN            0                       # Time in different power states
system.mem_ctrls1.memoryStateTime::ACT    42943466000                       # Time in different power states
system.mem_ctrls1.memoryStateTime::ACT_PDN            0                       # Time in different power states
system.mem_ctrls1.actEnergy::0              289880640                       # Energy for activate commands per rank (pJ)
system.mem_ctrls1.actEnergy::1              279984600                       # Energy for activate commands per rank (pJ)
system.mem_ctrls1.preEnergy::0              158169000                       # Energy for precharge commands per rank (pJ)
system.mem_ctrls1.preEnergy::1              152769375                       # Energy for precharge commands per rank (pJ)
system.mem_ctrls1.readEnergy::0             754798200                       # Energy for read commands per rank (pJ)
system.mem_ctrls1.readEnergy::1             757044600                       # Energy for read commands per rank (pJ)
system.mem_ctrls1.writeEnergy::0            396446400                       # Energy for write commands per rank (pJ)
system.mem_ctrls1.writeEnergy::1            396349200                       # Energy for write commands per rank (pJ)
system.mem_ctrls1.refreshEnergy::0         3705368160                       # Energy for refresh commands per rank (pJ)
system.mem_ctrls1.refreshEnergy::1         3705368160                       # Energy for refresh commands per rank (pJ)
system.mem_ctrls1.actBackEnergy::0        22084184880                       # Energy for active background per rank (pJ)
system.mem_ctrls1.actBackEnergy::1        21530283390                       # Energy for active background per rank (pJ)
system.mem_ctrls1.preBackEnergy::0        14666469000                       # Energy for precharge background per rank (pJ)
system.mem_ctrls1.preBackEnergy::1        15152347500                       # Energy for precharge background per rank (pJ)
system.mem_ctrls1.totalEnergy::0          42055316280                       # Total energy per rank (pJ)
system.mem_ctrls1.totalEnergy::1          41974146825                       # Total energy per rank (pJ)
system.mem_ctrls1.averagePower::0          741.311884                       # Core power per rank (mW)
system.mem_ctrls1.averagePower::1          739.881104                       # Core power per rank (mW)
system.mem_ctrls2.bytes_read::ruby.dir_cntrl2     12406272                       # Number of bytes read from this memory
system.mem_ctrls2.bytes_read::total          12406272                       # Number of bytes read from this memory
system.mem_ctrls2.bytes_written::ruby.dir_cntrl2      7830016                       # Number of bytes written to this memory
system.mem_ctrls2.bytes_written::total        7830016                       # Number of bytes written to this memory
system.mem_ctrls2.num_reads::ruby.dir_cntrl2       193848                       # Number of read requests responded to by this memory
system.mem_ctrls2.num_reads::total             193848                       # Number of read requests responded to by this memory
system.mem_ctrls2.num_writes::ruby.dir_cntrl2       122344                       # Number of write requests responded to by this memory
system.mem_ctrls2.num_writes::total            122344                       # Number of write requests responded to by this memory
system.mem_ctrls2.bw_read::ruby.dir_cntrl2    218686910                       # Total read bandwidth from this memory (bytes/s)
system.mem_ctrls2.bw_read::total            218686910                       # Total read bandwidth from this memory (bytes/s)
system.mem_ctrls2.bw_write::ruby.dir_cntrl2    138020673                       # Write bandwidth from this memory (bytes/s)
system.mem_ctrls2.bw_write::total           138020673                       # Write bandwidth from this memory (bytes/s)
system.mem_ctrls2.bw_total::ruby.dir_cntrl2    356707583                       # Total bandwidth to/from this memory (bytes/s)
system.mem_ctrls2.bw_total::total           356707583                       # Total bandwidth to/from this memory (bytes/s)
system.mem_ctrls2.readReqs                     193849                       # Number of read requests accepted
system.mem_ctrls2.writeReqs                    122344                       # Number of write requests accepted
system.mem_ctrls2.readBursts                   193849                       # Number of DRAM read bursts, including those serviced by the write queue
system.mem_ctrls2.writeBursts                  122344                       # Number of DRAM write bursts, including those merged in the write queue
system.mem_ctrls2.bytesReadDRAM              12405056                       # Total number of bytes read from DRAM
system.mem_ctrls2.bytesReadWrQ                   1216                       # Total number of bytes read from write queue
system.mem_ctrls2.bytesWritten                7829952                       # Total number of bytes written to DRAM
system.mem_ctrls2.bytesReadSys               12406336                       # Total read bytes from the system interface side
system.mem_ctrls2.bytesWrittenSys             7830016                       # Total written bytes from the system interface side
system.mem_ctrls2.servicedByWrQ                    19                       # Number of DRAM read bursts serviced by the write queue
system.mem_ctrls2.mergedWrBursts                    0                       # Number of DRAM write bursts merged with an existing one
system.mem_ctrls2.neitherReadNorWriteReqs            0                       # Number of requests that are neither read nor write
system.mem_ctrls2.perBankRdBursts::0            11872                       # Per bank write bursts
system.mem_ctrls2.perBankRdBursts::1            11998                       # Per bank write bursts
system.mem_ctrls2.perBankRdBursts::2            11862                       # Per bank write bursts
system.mem_ctrls2.perBankRdBursts::3            12236                       # Per bank write bursts
system.mem_ctrls2.perBankRdBursts::4            12017                       # Per bank write bursts
system.mem_ctrls2.perBankRdBursts::5            12082                       # Per bank write bursts
system.mem_ctrls2.perBankRdBursts::6            12292                       # Per bank write bursts
system.mem_ctrls2.perBankRdBursts::7            12447                       # Per bank write bursts
system.mem_ctrls2.perBankRdBursts::8            12184                       # Per bank write bursts
system.mem_ctrls2.perBankRdBursts::9            12559                       # Per bank write bursts
system.mem_ctrls2.perBankRdBursts::10           12207                       # Per bank write bursts
system.mem_ctrls2.perBankRdBursts::11           12592                       # Per bank write bursts
system.mem_ctrls2.perBankRdBursts::12           12032                       # Per bank write bursts
system.mem_ctrls2.perBankRdBursts::13           11764                       # Per bank write bursts
system.mem_ctrls2.perBankRdBursts::14           11983                       # Per bank write bursts
system.mem_ctrls2.perBankRdBursts::15           11702                       # Per bank write bursts
system.mem_ctrls2.perBankWrBursts::0             7590                       # Per bank write bursts
system.mem_ctrls2.perBankWrBursts::1             7465                       # Per bank write bursts
system.mem_ctrls2.perBankWrBursts::2             7610                       # Per bank write bursts
system.mem_ctrls2.perBankWrBursts::3             7639                       # Per bank write bursts
system.mem_ctrls2.perBankWrBursts::4             7606                       # Per bank write bursts
system.mem_ctrls2.perBankWrBursts::5             7675                       # Per bank write bursts
system.mem_ctrls2.perBankWrBursts::6             7766                       # Per bank write bursts
system.mem_ctrls2.perBankWrBursts::7             7810                       # Per bank write bursts
system.mem_ctrls2.perBankWrBursts::8             7720                       # Per bank write bursts
system.mem_ctrls2.perBankWrBursts::9             7869                       # Per bank write bursts
system.mem_ctrls2.perBankWrBursts::10            7673                       # Per bank write bursts
system.mem_ctrls2.perBankWrBursts::11            7721                       # Per bank write bursts
system.mem_ctrls2.perBankWrBursts::12            7555                       # Per bank write bursts
system.mem_ctrls2.perBankWrBursts::13            7593                       # Per bank write bursts
system.mem_ctrls2.perBankWrBursts::14            7619                       # Per bank write bursts
system.mem_ctrls2.perBankWrBursts::15            7432                       # Per bank write bursts
system.mem_ctrls2.numRdRetry                    64974                       # Number of times read queue was full causing retry
system.mem_ctrls2.numWrRetry                     6686                       # Number of times write queue was full causing retry
system.mem_ctrls2.totGap                  56730675500                       # Total gap between requests
system.mem_ctrls2.readPktSize::0                    0                       # Read request sizes (log2)
system.mem_ctrls2.readPktSize::1                    0                       # Read request sizes (log2)
system.mem_ctrls2.readPktSize::2                    0                       # Read request sizes (log2)
system.mem_ctrls2.readPktSize::3                    0                       # Read request sizes (log2)
system.mem_ctrls2.readPktSize::4                    0                       # Read request sizes (log2)
system.mem_ctrls2.readPktSize::5                    0                       # Read request sizes (log2)
system.mem_ctrls2.readPktSize::6               193849                       # Read request sizes (log2)
system.mem_ctrls2.writePktSize::0                   0                       # Write request sizes (log2)
system.mem_ctrls2.writePktSize::1                   0                       # Write request sizes (log2)
system.mem_ctrls2.writePktSize::2                   0                       # Write request sizes (log2)
system.mem_ctrls2.writePktSize::3                   0                       # Write request sizes (log2)
system.mem_ctrls2.writePktSize::4                   0                       # Write request sizes (log2)
system.mem_ctrls2.writePktSize::5                   0                       # Write request sizes (log2)
system.mem_ctrls2.writePktSize::6              122344                       # Write request sizes (log2)
system.mem_ctrls2.rdQLenPdf::0                  67822                       # What read queue length does an incoming req see
system.mem_ctrls2.rdQLenPdf::1                   1644                       # What read queue length does an incoming req see
system.mem_ctrls2.rdQLenPdf::2                   1373                       # What read queue length does an incoming req see
system.mem_ctrls2.rdQLenPdf::3                   1427                       # What read queue length does an incoming req see
system.mem_ctrls2.rdQLenPdf::4                   1527                       # What read queue length does an incoming req see
system.mem_ctrls2.rdQLenPdf::5                   1655                       # What read queue length does an incoming req see
system.mem_ctrls2.rdQLenPdf::6                   1736                       # What read queue length does an incoming req see
system.mem_ctrls2.rdQLenPdf::7                   1743                       # What read queue length does an incoming req see
system.mem_ctrls2.rdQLenPdf::8                   1750                       # What read queue length does an incoming req see
system.mem_ctrls2.rdQLenPdf::9                   1809                       # What read queue length does an incoming req see
system.mem_ctrls2.rdQLenPdf::10                  1800                       # What read queue length does an incoming req see
system.mem_ctrls2.rdQLenPdf::11                  1759                       # What read queue length does an incoming req see
system.mem_ctrls2.rdQLenPdf::12                  1840                       # What read queue length does an incoming req see
system.mem_ctrls2.rdQLenPdf::13                  1842                       # What read queue length does an incoming req see
system.mem_ctrls2.rdQLenPdf::14                  1825                       # What read queue length does an incoming req see
system.mem_ctrls2.rdQLenPdf::15                  1893                       # What read queue length does an incoming req see
system.mem_ctrls2.rdQLenPdf::16                  1899                       # What read queue length does an incoming req see
system.mem_ctrls2.rdQLenPdf::17                  1953                       # What read queue length does an incoming req see
system.mem_ctrls2.rdQLenPdf::18                  1975                       # What read queue length does an incoming req see
system.mem_ctrls2.rdQLenPdf::19                  2025                       # What read queue length does an incoming req see
system.mem_ctrls2.rdQLenPdf::20                  1914                       # What read queue length does an incoming req see
system.mem_ctrls2.rdQLenPdf::21                  1934                       # What read queue length does an incoming req see
system.mem_ctrls2.rdQLenPdf::22                  2002                       # What read queue length does an incoming req see
system.mem_ctrls2.rdQLenPdf::23                  1938                       # What read queue length does an incoming req see
system.mem_ctrls2.rdQLenPdf::24                  2029                       # What read queue length does an incoming req see
system.mem_ctrls2.rdQLenPdf::25                  2145                       # What read queue length does an incoming req see
system.mem_ctrls2.rdQLenPdf::26                  2171                       # What read queue length does an incoming req see
system.mem_ctrls2.rdQLenPdf::27                  2244                       # What read queue length does an incoming req see
system.mem_ctrls2.rdQLenPdf::28                  2337                       # What read queue length does an incoming req see
system.mem_ctrls2.rdQLenPdf::29                  2448                       # What read queue length does an incoming req see
system.mem_ctrls2.rdQLenPdf::30                  2789                       # What read queue length does an incoming req see
system.mem_ctrls2.rdQLenPdf::31                 68582                       # What read queue length does an incoming req see
system.mem_ctrls2.wrQLenPdf::0                  16292                       # What write queue length does an incoming req see
system.mem_ctrls2.wrQLenPdf::1                  17770                       # What write queue length does an incoming req see
system.mem_ctrls2.wrQLenPdf::2                  18464                       # What write queue length does an incoming req see
system.mem_ctrls2.wrQLenPdf::3                  19010                       # What write queue length does an incoming req see
system.mem_ctrls2.wrQLenPdf::4                  19460                       # What write queue length does an incoming req see
system.mem_ctrls2.wrQLenPdf::5                   8138                       # What write queue length does an incoming req see
system.mem_ctrls2.wrQLenPdf::6                   9316                       # What write queue length does an incoming req see
system.mem_ctrls2.wrQLenPdf::7                  13894                       # What write queue length does an incoming req see
system.mem_ctrls2.bytesPerActivate::samples        74999                       # Bytes accessed per row activation
system.mem_ctrls2.bytesPerActivate::mean   269.803704                       # Bytes accessed per row activation
system.mem_ctrls2.bytesPerActivate::gmean   196.496013                       # Bytes accessed per row activation
system.mem_ctrls2.bytesPerActivate::stdev   225.227859                       # Bytes accessed per row activation
system.mem_ctrls2.bytesPerActivate::0-127        18397     24.53%     24.53% # Bytes accessed per row activation
system.mem_ctrls2.bytesPerActivate::128-255        19484     25.98%     50.51% # Bytes accessed per row activation
system.mem_ctrls2.bytesPerActivate::256-383        21881     29.18%     79.68% # Bytes accessed per row activation
system.mem_ctrls2.bytesPerActivate::384-511         5289      7.05%     86.74% # Bytes accessed per row activation
system.mem_ctrls2.bytesPerActivate::512-639         3663      4.88%     91.62% # Bytes accessed per row activation
system.mem_ctrls2.bytesPerActivate::640-767         1911      2.55%     94.17% # Bytes accessed per row activation
system.mem_ctrls2.bytesPerActivate::768-895         1164      1.55%     95.72% # Bytes accessed per row activation
system.mem_ctrls2.bytesPerActivate::896-1023          779      1.04%     96.76% # Bytes accessed per row activation
system.mem_ctrls2.bytesPerActivate::1024-1151         2431      3.24%    100.00% # Bytes accessed per row activation
system.mem_ctrls2.bytesPerActivate::total        74999                       # Bytes accessed per row activation
system.mem_ctrls2.rdPerTurnAround::samples        17043                       # Reads before turning the bus around for writes
system.mem_ctrls2.rdPerTurnAround::mean     11.372880                       # Reads before turning the bus around for writes
system.mem_ctrls2.rdPerTurnAround::stdev    26.605982                       # Reads before turning the bus around for writes
system.mem_ctrls2.rdPerTurnAround::0-127        17036     99.96%     99.96% # Reads before turning the bus around for writes
system.mem_ctrls2.rdPerTurnAround::128-255            5      0.03%     99.99% # Reads before turning the bus around for writes
system.mem_ctrls2.rdPerTurnAround::1152-1279            1      0.01%     99.99% # Reads before turning the bus around for writes
system.mem_ctrls2.rdPerTurnAround::2816-2943            1      0.01%    100.00% # Reads before turning the bus around for writes
system.mem_ctrls2.rdPerTurnAround::total        17043                       # Reads before turning the bus around for writes
system.mem_ctrls2.wrPerTurnAround::samples        17043                       # Writes before turning the bus around for reads
system.mem_ctrls2.wrPerTurnAround::mean      7.178490                       # Writes before turning the bus around for reads
system.mem_ctrls2.wrPerTurnAround::gmean     6.505661                       # Writes before turning the bus around for reads
system.mem_ctrls2.wrPerTurnAround::stdev     3.624518                       # Writes before turning the bus around for reads
system.mem_ctrls2.wrPerTurnAround::4-7          12108     71.04%     71.04% # Writes before turning the bus around for reads
system.mem_ctrls2.wrPerTurnAround::8-11          2086     12.24%     83.28% # Writes before turning the bus around for reads
system.mem_ctrls2.wrPerTurnAround::12-15         1728     10.14%     93.42% # Writes before turning the bus around for reads
system.mem_ctrls2.wrPerTurnAround::16-19         1121      6.58%    100.00% # Writes before turning the bus around for reads
system.mem_ctrls2.wrPerTurnAround::total        17043                       # Writes before turning the bus around for reads
system.mem_ctrls2.totQLat                 31349139892                       # Total ticks spent queuing
system.mem_ctrls2.totMemAccLat            34983433642                       # Total ticks spent from burst creation until serviced by the DRAM
system.mem_ctrls2.totBusLat                 969145000                       # Total ticks spent in databus transfers
system.mem_ctrls2.avgQLat                   161735.23                       # Average queueing delay per DRAM burst
system.mem_ctrls2.avgBusLat                   4999.97                       # Average bus latency per DRAM burst
system.mem_ctrls2.avgMemAccLat              180485.13                       # Average memory access latency per DRAM burst
system.mem_ctrls2.avgRdBW                      218.67                       # Average DRAM read bandwidth in MiByte/s
system.mem_ctrls2.avgWrBW                      138.02                       # Average achieved write bandwidth in MiByte/s
system.mem_ctrls2.avgRdBWSys                   218.69                       # Average system read bandwidth in MiByte/s
system.mem_ctrls2.avgWrBWSys                   138.02                       # Average system write bandwidth in MiByte/s
system.mem_ctrls2.peakBW                     12800.00                       # Theoretical peak bandwidth in MiByte/s
system.mem_ctrls2.busUtil                        2.79                       # Data bus utilization in percentage
system.mem_ctrls2.busUtilRead                    1.71                       # Data bus utilization in percentage for reads
system.mem_ctrls2.busUtilWrite                   1.08                       # Data bus utilization in percentage for writes
system.mem_ctrls2.avgRdQLen                      1.58                       # Average read queue length when enqueuing
system.mem_ctrls2.avgWrQLen                      2.93                       # Average write queue length when enqueuing
system.mem_ctrls2.readRowHits                  154507                       # Number of row buffer hits during reads
system.mem_ctrls2.writeRowHits                  86666                       # Number of row buffer hits during writes
system.mem_ctrls2.readRowHitRate                79.71                       # Row buffer hit rate for reads
system.mem_ctrls2.writeRowHitRate               70.84                       # Row buffer hit rate for writes
system.mem_ctrls2.avgGap                    179417.87                       # Average gap between requests
system.mem_ctrls2.pageHitRate                   76.28                       # Row buffer hit rate, read and write combined
system.mem_ctrls2.memoryStateTime::IDLE   11875753250                       # Time in different power states
system.mem_ctrls2.memoryStateTime::REF     1894100000                       # Time in different power states
system.mem_ctrls2.memoryStateTime::PRE_PDN            0                       # Time in different power states
system.mem_ctrls2.memoryStateTime::ACT    42960821750                       # Time in different power states
system.mem_ctrls2.memoryStateTime::ACT_PDN            0                       # Time in different power states
system.mem_ctrls2.actEnergy::0              286130880                       # Energy for activate commands per rank (pJ)
system.mem_ctrls2.actEnergy::1              280861560                       # Energy for activate commands per rank (pJ)
system.mem_ctrls2.preEnergy::0              156123000                       # Energy for precharge commands per rank (pJ)
system.mem_ctrls2.preEnergy::1              153247875                       # Energy for precharge commands per rank (pJ)
system.mem_ctrls2.readEnergy::0             755086800                       # Energy for read commands per rank (pJ)
system.mem_ctrls2.readEnergy::1             756779400                       # Energy for read commands per rank (pJ)
system.mem_ctrls2.writeEnergy::0            396323280                       # Energy for write commands per rank (pJ)
system.mem_ctrls2.writeEnergy::1            396459360                       # Energy for write commands per rank (pJ)
system.mem_ctrls2.refreshEnergy::0         3705368160                       # Energy for refresh commands per rank (pJ)
system.mem_ctrls2.refreshEnergy::1         3705368160                       # Energy for refresh commands per rank (pJ)
system.mem_ctrls2.actBackEnergy::0        21837053970                       # Energy for active background per rank (pJ)
system.mem_ctrls2.actBackEnergy::1        21337195320                       # Energy for active background per rank (pJ)
system.mem_ctrls2.preBackEnergy::0        14883242250                       # Energy for precharge background per rank (pJ)
system.mem_ctrls2.preBackEnergy::1        15321714750                       # Energy for precharge background per rank (pJ)
system.mem_ctrls2.totalEnergy::0          42019328340                       # Total energy per rank (pJ)
system.mem_ctrls2.totalEnergy::1          41951626425                       # Total energy per rank (pJ)
system.mem_ctrls2.averagePower::0          740.677701                       # Core power per rank (mW)
system.mem_ctrls2.averagePower::1          739.484315                       # Core power per rank (mW)
system.mem_ctrls3.bytes_read::ruby.dir_cntrl3     12385280                       # Number of bytes read from this memory
system.mem_ctrls3.bytes_read::total          12385280                       # Number of bytes read from this memory
system.mem_ctrls3.bytes_written::ruby.dir_cntrl3      7827968                       # Number of bytes written to this memory
system.mem_ctrls3.bytes_written::total        7827968                       # Number of bytes written to this memory
system.mem_ctrls3.num_reads::ruby.dir_cntrl3       193520                       # Number of read requests responded to by this memory
system.mem_ctrls3.num_reads::total             193520                       # Number of read requests responded to by this memory
system.mem_ctrls3.num_writes::ruby.dir_cntrl3       122312                       # Number of write requests responded to by this memory
system.mem_ctrls3.num_writes::total            122312                       # Number of write requests responded to by this memory
system.mem_ctrls3.bw_read::ruby.dir_cntrl3    218316882                       # Total read bandwidth from this memory (bytes/s)
system.mem_ctrls3.bw_read::total            218316882                       # Total read bandwidth from this memory (bytes/s)
system.mem_ctrls3.bw_write::ruby.dir_cntrl3    137984572                       # Write bandwidth from this memory (bytes/s)
system.mem_ctrls3.bw_write::total           137984572                       # Write bandwidth from this memory (bytes/s)
system.mem_ctrls3.bw_total::ruby.dir_cntrl3    356301454                       # Total bandwidth to/from this memory (bytes/s)
system.mem_ctrls3.bw_total::total           356301454                       # Total bandwidth to/from this memory (bytes/s)
system.mem_ctrls3.readReqs                     193520                       # Number of read requests accepted
system.mem_ctrls3.writeReqs                    122312                       # Number of write requests accepted
system.mem_ctrls3.readBursts                   193520                       # Number of DRAM read bursts, including those serviced by the write queue
system.mem_ctrls3.writeBursts                  122312                       # Number of DRAM write bursts, including those merged in the write queue
system.mem_ctrls3.bytesReadDRAM              12384320                       # Total number of bytes read from DRAM
system.mem_ctrls3.bytesReadWrQ                    960                       # Total number of bytes read from write queue
system.mem_ctrls3.bytesWritten                7827776                       # Total number of bytes written to DRAM
system.mem_ctrls3.bytesReadSys               12385280                       # Total read bytes from the system interface side
system.mem_ctrls3.bytesWrittenSys             7827968                       # Total written bytes from the system interface side
system.mem_ctrls3.servicedByWrQ                    15                       # Number of DRAM read bursts serviced by the write queue
system.mem_ctrls3.mergedWrBursts                    0                       # Number of DRAM write bursts merged with an existing one
system.mem_ctrls3.neitherReadNorWriteReqs            0                       # Number of requests that are neither read nor write
system.mem_ctrls3.perBankRdBursts::0            11862                       # Per bank write bursts
system.mem_ctrls3.perBankRdBursts::1            11953                       # Per bank write bursts
system.mem_ctrls3.perBankRdBursts::2            11803                       # Per bank write bursts
system.mem_ctrls3.perBankRdBursts::3            12196                       # Per bank write bursts
system.mem_ctrls3.perBankRdBursts::4            11966                       # Per bank write bursts
system.mem_ctrls3.perBankRdBursts::5            12058                       # Per bank write bursts
system.mem_ctrls3.perBankRdBursts::6            12265                       # Per bank write bursts
system.mem_ctrls3.perBankRdBursts::7            12434                       # Per bank write bursts
system.mem_ctrls3.perBankRdBursts::8            12187                       # Per bank write bursts
system.mem_ctrls3.perBankRdBursts::9            12552                       # Per bank write bursts
system.mem_ctrls3.perBankRdBursts::10           12234                       # Per bank write bursts
system.mem_ctrls3.perBankRdBursts::11           12521                       # Per bank write bursts
system.mem_ctrls3.perBankRdBursts::12           12025                       # Per bank write bursts
system.mem_ctrls3.perBankRdBursts::13           11758                       # Per bank write bursts
system.mem_ctrls3.perBankRdBursts::14           11997                       # Per bank write bursts
system.mem_ctrls3.perBankRdBursts::15           11694                       # Per bank write bursts
system.mem_ctrls3.perBankWrBursts::0             7596                       # Per bank write bursts
system.mem_ctrls3.perBankWrBursts::1             7453                       # Per bank write bursts
system.mem_ctrls3.perBankWrBursts::2             7606                       # Per bank write bursts
system.mem_ctrls3.perBankWrBursts::3             7627                       # Per bank write bursts
system.mem_ctrls3.perBankWrBursts::4             7600                       # Per bank write bursts
system.mem_ctrls3.perBankWrBursts::5             7678                       # Per bank write bursts
system.mem_ctrls3.perBankWrBursts::6             7767                       # Per bank write bursts
system.mem_ctrls3.perBankWrBursts::7             7799                       # Per bank write bursts
system.mem_ctrls3.perBankWrBursts::8             7720                       # Per bank write bursts
system.mem_ctrls3.perBankWrBursts::9             7870                       # Per bank write bursts
system.mem_ctrls3.perBankWrBursts::10            7676                       # Per bank write bursts
system.mem_ctrls3.perBankWrBursts::11            7729                       # Per bank write bursts
system.mem_ctrls3.perBankWrBursts::12            7553                       # Per bank write bursts
system.mem_ctrls3.perBankWrBursts::13            7600                       # Per bank write bursts
system.mem_ctrls3.perBankWrBursts::14            7611                       # Per bank write bursts
system.mem_ctrls3.perBankWrBursts::15            7424                       # Per bank write bursts
system.mem_ctrls3.numRdRetry                    59071                       # Number of times read queue was full causing retry
system.mem_ctrls3.numWrRetry                     6526                       # Number of times write queue was full causing retry
system.mem_ctrls3.totGap                  56729687000                       # Total gap between requests
system.mem_ctrls3.readPktSize::0                    0                       # Read request sizes (log2)
system.mem_ctrls3.readPktSize::1                    0                       # Read request sizes (log2)
system.mem_ctrls3.readPktSize::2                    0                       # Read request sizes (log2)
system.mem_ctrls3.readPktSize::3                    0                       # Read request sizes (log2)
system.mem_ctrls3.readPktSize::4                    0                       # Read request sizes (log2)
system.mem_ctrls3.readPktSize::5                    0                       # Read request sizes (log2)
system.mem_ctrls3.readPktSize::6               193520                       # Read request sizes (log2)
system.mem_ctrls3.writePktSize::0                   0                       # Write request sizes (log2)
system.mem_ctrls3.writePktSize::1                   0                       # Write request sizes (log2)
system.mem_ctrls3.writePktSize::2                   0                       # Write request sizes (log2)
system.mem_ctrls3.writePktSize::3                   0                       # Write request sizes (log2)
system.mem_ctrls3.writePktSize::4                   0                       # Write request sizes (log2)
system.mem_ctrls3.writePktSize::5                   0                       # Write request sizes (log2)
system.mem_ctrls3.writePktSize::6              122312                       # Write request sizes (log2)
system.mem_ctrls3.rdQLenPdf::0                  67497                       # What read queue length does an incoming req see
system.mem_ctrls3.rdQLenPdf::1                   1749                       # What read queue length does an incoming req see
system.mem_ctrls3.rdQLenPdf::2                   1458                       # What read queue length does an incoming req see
system.mem_ctrls3.rdQLenPdf::3                   1447                       # What read queue length does an incoming req see
system.mem_ctrls3.rdQLenPdf::4                   1577                       # What read queue length does an incoming req see
system.mem_ctrls3.rdQLenPdf::5                   1686                       # What read queue length does an incoming req see
system.mem_ctrls3.rdQLenPdf::6                   1778                       # What read queue length does an incoming req see
system.mem_ctrls3.rdQLenPdf::7                   1842                       # What read queue length does an incoming req see
system.mem_ctrls3.rdQLenPdf::8                   1978                       # What read queue length does an incoming req see
system.mem_ctrls3.rdQLenPdf::9                   2071                       # What read queue length does an incoming req see
system.mem_ctrls3.rdQLenPdf::10                  2026                       # What read queue length does an incoming req see
system.mem_ctrls3.rdQLenPdf::11                  2079                       # What read queue length does an incoming req see
system.mem_ctrls3.rdQLenPdf::12                  2056                       # What read queue length does an incoming req see
system.mem_ctrls3.rdQLenPdf::13                  1999                       # What read queue length does an incoming req see
system.mem_ctrls3.rdQLenPdf::14                  2086                       # What read queue length does an incoming req see
system.mem_ctrls3.rdQLenPdf::15                  2037                       # What read queue length does an incoming req see
system.mem_ctrls3.rdQLenPdf::16                  2132                       # What read queue length does an incoming req see
system.mem_ctrls3.rdQLenPdf::17                  2117                       # What read queue length does an incoming req see
system.mem_ctrls3.rdQLenPdf::18                  2111                       # What read queue length does an incoming req see
system.mem_ctrls3.rdQLenPdf::19                  2067                       # What read queue length does an incoming req see
system.mem_ctrls3.rdQLenPdf::20                  2101                       # What read queue length does an incoming req see
system.mem_ctrls3.rdQLenPdf::21                  2100                       # What read queue length does an incoming req see
system.mem_ctrls3.rdQLenPdf::22                  2229                       # What read queue length does an incoming req see
system.mem_ctrls3.rdQLenPdf::23                  2162                       # What read queue length does an incoming req see
system.mem_ctrls3.rdQLenPdf::24                  2268                       # What read queue length does an incoming req see
[...]
system.ruby.L2Cache_Controller.IM.L1_GETX::total            6                      
system.ruby.L2Cache_Controller.IM.Mem_Data |       14974      3.14%      3.14% |       14882      3.12%      6.26% |       14886      3.12%      9.39% |       14888      3.12%     12.51% |       14881      3.12%     15.63% |       14889      3.12%     18.76% |       14892      3.12%     21.88% |       14884      3.12%     25.00% |       14893      3.12%     28.13% |       14897      3.13%     31.25% |       14878      3.12%     34.37% |       14900      3.13%     37.50% |       14889      3.12%     40.62% |       14891      3.12%     43.75% |       14886      3.12%     46.87% |       14881      3.12%     49.99% |       14922      3.13%     53.12% |       14897      3.13%     56.25% |       14896      3.13%     59.37% |       14899      3.13%     62.50% |       14913      3.13%     65.63% |       14922      3.13%     68.76% |       14884      3.12%     71.88% |       14896      3.13%     75.01% |       14906      3.13%     78.13% |       14898      3.13%     81.26% |       14900      3.13%     84.38% |       14891      3.12%     87.51% |       14886      3.12%     90.63% |       14883      3.12%     93.75% |       14893      3.12%     96.88% |       14880      3.12%    100.00%
system.ruby.L2Cache_Controller.IM.Mem_Data::total       476657                      
system.ruby.L2Cache_Controller.SS_MB.Exclusive_Unblock |           3      6.12%      6.12% |           6     12.24%     18.37% |           2      4.08%     22.45% |           3      6.12%     28.57% |           0      0.00%     28.57% |           0      0.00%     28.57% |           0      0.00%     28.57% |           0      0.00%     28.57% |           1      2.04%     30.61% |           0      0.00%     30.61% |           0      0.00%     30.61% |           1      2.04%     32.65% |           4      8.16%     40.82% |           0      0.00%     40.82% |           2      4.08%     44.90% |           0      0.00%     44.90% |           1      2.04%     46.94% |           2      4.08%     51.02% |          13     26.53%     77.55% |           3      6.12%     83.67% |           0      0.00%     83.67% |           0      0.00%     83.67% |           0      0.00%     83.67% |           0      0.00%     83.67% |           1      2.04%     85.71% |           0      0.00%     85.71% |           3      6.12%     91.84% |           4      8.16%    100.00% |           0      0.00%    100.00% |           0      0.00%    100.00% |           0      0.00%    100.00% |           0      0.00%    100.00%
system.ruby.L2Cache_Controller.SS_MB.Exclusive_Unblock::total           49                      
system.ruby.L2Cache_Controller.MT_MB.Exclusive_Unblock |       75916      7.22%      7.22% |       32862      3.13%     10.35% |       29490      2.81%     13.16% |       32395      3.08%     16.24% |       29790      2.83%     19.07% |       29678      2.82%     21.90% |       29098      2.77%     24.66% |       29696      2.83%     27.49% |       30395      2.89%     30.38% |       29990      2.85%     33.24% |       32541      3.10%     36.33% |       30867      2.94%     39.27% |       30527      2.90%     42.17% |       30304      2.88%     45.06% |       29598      2.82%     47.87% |       30195      2.87%     50.74% |       31509      3.00%     53.74% |       30315      2.88%     56.63% |       30919      2.94%     59.57% |       31638      3.01%     62.58% |       32123      3.06%     65.64% |       37030      3.52%     69.16% |       31243      2.97%     72.13% |       31248      2.97%     75.10% |       31258      2.97%     78.08% |       31240      2.97%     81.05% |       31169      2.97%     84.02% |       30875      2.94%     86.95% |       32695      3.11%     90.06% |       32157      3.06%     93.12% |       34137      3.25%     96.37% |       38128      3.63%    100.00%
system.ruby.L2Cache_Controller.MT_MB.Exclusive_Unblock::total      1051026                      
system.ruby.L2Cache_Controller.MT_IIB.L1_PUTX |           0      0.00%      0.00% |           0      0.00%      0.00% |           0      0.00%      0.00% |           0      0.00%      0.00% |           0      0.00%      0.00% |           0      0.00%      0.00% |           0      0.00%      0.00% |           0      0.00%      0.00% |           0      0.00%      0.00% |           0      0.00%      0.00% |           0      0.00%      0.00% |           0      0.00%      0.00% |           0      0.00%      0.00% |           0      0.00%      0.00% |           0      0.00%      0.00% |           0      0.00%      0.00% |           0      0.00%      0.00% |           0      0.00%      0.00% |           0      0.00%      0.00% |           1    100.00%    100.00% |           0      0.00%    100.00% |           0      0.00%    100.00% |           0      0.00%    100.00% |           0      0.00%    100.00% |           0      0.00%    100.00% |           0      0.00%    100.00% |           0      0.00%    100.00% |           0      0.00%    100.00% |           0      0.00%    100.00% |           0      0.00%    100.00% |           0      0.00%    100.00% |           0      0.00%    100.00%
system.ruby.L2Cache_Controller.MT_IIB.L1_PUTX::total            1                      
system.ruby.L2Cache_Controller.MT_IIB.WB_Data |           1      1.25%      1.25% |           2      2.50%      3.75% |           1      1.25%      5.00% |           3      3.75%      8.75% |           3      3.75%     12.50% |           3      3.75%     16.25% |           4      5.00%     21.25% |           3      3.75%     25.00% |           5      6.25%     31.25% |           3      3.75%     35.00% |           2      2.50%     37.50% |           2      2.50%     40.00% |           3      3.75%     43.75% |           3      3.75%     47.50% |           4      5.00%     52.50% |           2      2.50%     55.00% |           3      3.75%     58.75% |           1      1.25%     60.00% |           2      2.50%     62.50% |           0      0.00%     62.50% |           1      1.25%     63.75% |           0      0.00%     63.75% |           1      1.25%     65.00% |           2      2.50%     67.50% |           3      3.75%     71.25% |           5      6.25%     77.50% |           4      5.00%     82.50% |           5      6.25%     88.75% |           3      3.75%     92.50% |           2      2.50%     95.00% |           2      2.50%     97.50% |           2      2.50%    100.00%
system.ruby.L2Cache_Controller.MT_IIB.WB_Data::total           80                      
system.ruby.L2Cache_Controller.MT_IIB.WB_Data_clean |          31     43.66%     43.66% |           0      0.00%     43.66% |           0      0.00%     43.66% |          15     21.13%     64.79% |           0      0.00%     64.79% |           0      0.00%     64.79% |           0      0.00%     64.79% |           0      0.00%     64.79% |           0      0.00%     64.79% |           0      0.00%     64.79% |           0      0.00%     64.79% |           0      0.00%     64.79% |           0      0.00%     64.79% |           0      0.00%     64.79% |           0      0.00%     64.79% |           0      0.00%     64.79% |           9     12.68%     77.46% |           0      0.00%     77.46% |           0      0.00%     77.46% |          14     19.72%     97.18% |           0      0.00%     97.18% |           0      0.00%     97.18% |           0      0.00%     97.18% |           0      0.00%     97.18% |           0      0.00%     97.18% |           0      0.00%     97.18% |           0      0.00%     97.18% |           2      2.82%    100.00% |           0      0.00%    100.00% |           0      0.00%    100.00% |           0      0.00%    100.00% |           0      0.00%    100.00%
system.ruby.L2Cache_Controller.MT_IIB.WB_Data_clean::total           71                      
system.ruby.L2Cache_Controller.MT_IIB.Unblock |           0      0.00%      0.00% |           0      0.00%      0.00% |           0      0.00%      0.00% |           0      0.00%      0.00% |           0      0.00%      0.00% |           0      0.00%      0.00% |           0      0.00%      0.00% |           0      0.00%      0.00% |           0      0.00%      0.00% |           0      0.00%      0.00% |           0      0.00%      0.00% |           0      0.00%      0.00% |           0      0.00%      0.00% |           0      0.00%      0.00% |           0      0.00%      0.00% |           1     50.00%     50.00% |           0      0.00%     50.00% |           0      0.00%     50.00% |           0      0.00%     50.00% |           1     50.00%    100.00% |           0      0.00%    100.00% |           0      0.00%    100.00% |           0      0.00%    100.00% |           0      0.00%    100.00% |           0      0.00%    100.00% |           0      0.00%    100.00% |           0      0.00%    100.00% |           0      0.00%    100.00% |           0      0.00%    100.00% |           0      0.00%    100.00% |           0      0.00%    100.00% |           0      0.00%    100.00%
system.ruby.L2Cache_Controller.MT_IIB.Unblock::total            2                      
system.ruby.L2Cache_Controller.MT_IB.WB_Data |           0      0.00%      0.00% |           0      0.00%      0.00% |           0      0.00%      0.00% |           0      0.00%      0.00% |           0      0.00%      0.00% |           0      0.00%      0.00% |           0      0.00%      0.00% |           0      0.00%      0.00% |           0      0.00%      0.00% |           0      0.00%      0.00% |           0      0.00%      0.00% |           0      0.00%      0.00% |           0      0.00%      0.00% |           0      0.00%      0.00% |           0      0.00%      0.00% |           1    100.00%    100.00% |           0      0.00%    100.00% |           0      0.00%    100.00% |           0      0.00%    100.00% |           0      0.00%    100.00% |           0      0.00%    100.00% |           0      0.00%    100.00% |           0      0.00%    100.00% |           0      0.00%    100.00% |           0      0.00%    100.00% |           0      0.00%    100.00% |           0      0.00%    100.00% |           0      0.00%    100.00% |           0      0.00%    100.00% |           0      0.00%    100.00% |           0      0.00%    100.00% |           0      0.00%    100.00%
system.ruby.L2Cache_Controller.MT_IB.WB_Data::total            1                      
system.ruby.L2Cache_Controller.MT_IB.WB_Data_clean |           0      0.00%      0.00% |           0      0.00%      0.00% |           0      0.00%      0.00% |           0      0.00%      0.00% |           0      0.00%      0.00% |           0      0.00%      0.00% |           0      0.00%      0.00% |           0      0.00%      0.00% |           0      0.00%      0.00% |           0      0.00%      0.00% |           0      0.00%      0.00% |           0      0.00%      0.00% |           0      0.00%      0.00% |           0      0.00%      0.00% |           0      0.00%      0.00% |           0      0.00%      0.00% |           0      0.00%      0.00% |           0      0.00%      0.00% |           0      0.00%      0.00% |           1    100.00%    100.00% |           0      0.00%    100.00% |           0      0.00%    100.00% |           0      0.00%    100.00% |           0      0.00%    100.00% |           0      0.00%    100.00% |           0      0.00%    100.00% |           0      0.00%    100.00% |           0      0.00%    100.00% |           0      0.00%    100.00% |           0      0.00%    100.00% |           0      0.00%    100.00% |           0      0.00%    100.00%
system.ruby.L2Cache_Controller.MT_IB.WB_Data_clean::total            1                      
system.ruby.L2Cache_Controller.MT_SB.L1_PUTX |           1    100.00%    100.00% |           0      0.00%    100.00% |           0      0.00%    100.00% |           0      0.00%    100.00% |           0      0.00%    100.00% |           0      0.00%    100.00% |           0      0.00%    100.00% |           0      0.00%    100.00% |           0      0.00%    100.00% |           0      0.00%    100.00% |           0      0.00%    100.00% |           0      0.00%    100.00% |           0      0.00%    100.00% |           0      0.00%    100.00% |           0      0.00%    100.00% |           0      0.00%    100.00% |           0      0.00%    100.00% |           0      0.00%    100.00% |           0      0.00%    100.00% |           0      0.00%    100.00% |           0      0.00%    100.00% |           0      0.00%    100.00% |           0      0.00%    100.00% |           0      0.00%    100.00% |           0      0.00%    100.00% |           0      0.00%    100.00% |           0      0.00%    100.00% |           0      0.00%    100.00% |           0      0.00%    100.00% |           0      0.00%    100.00% |           0      0.00%    100.00% |           0      0.00%    100.00%
system.ruby.L2Cache_Controller.MT_SB.L1_PUTX::total            1                      
system.ruby.L2Cache_Controller.MT_SB.Unblock |          32     21.19%     21.19% |           2      1.32%     22.52% |           1      0.66%     23.18% |          18     11.92%     35.10% |           3      1.99%     37.09% |           3      1.99%     39.07% |           4      2.65%     41.72% |           3      1.99%     43.71% |           5      3.31%     47.02% |           3      1.99%     49.01% |           2      1.32%     50.33% |           2      1.32%     51.66% |           3      1.99%     53.64% |           3      1.99%     55.63% |           4      2.65%     58.28% |           2      1.32%     59.60% |          12      7.95%     67.55% |           1      0.66%     68.21% |           2      1.32%     69.54% |          14      9.27%     78.81% |           1      0.66%     79.47% |           0      0.00%     79.47% |           1      0.66%     80.13% |           2      1.32%     81.46% |           3      1.99%     83.44% |           5      3.31%     86.75% |           4      2.65%     89.40% |           7      4.64%     94.04% |           3      1.99%     96.03% |           2      1.32%     97.35% |           2      1.32%     98.68% |           2      1.32%    100.00%
system.ruby.L2Cache_Controller.MT_SB.Unblock::total          151                      
system.ruby.SimicsNetworkPortInterface_Controller.MessageSend |       47920     16.16%     16.16% |      148260     50.00%     66.16% |       12435      4.19%     70.35% |       13554      4.57%     74.93% |       12198      4.11%     79.04% |       13521      4.56%     83.60% |       12401      4.18%     87.78% |       13807      4.66%     92.44% |       10875      3.67%     96.11% |       11549      3.89%    100.00% |           0      0.00%    100.00% |           0      0.00%    100.00% |           0      0.00%    100.00% |           0      0.00%    100.00% |           0      0.00%    100.00% |           0      0.00%    100.00% |           0      0.00%    100.00% |           0      0.00%    100.00% |           0      0.00%    100.00% |           0      0.00%    100.00% |           0      0.00%    100.00% |           0      0.00%    100.00% |           0      0.00%    100.00% |           0      0.00%    100.00% |           0      0.00%    100.00% |           0      0.00%    100.00% |           0      0.00%    100.00% |           0      0.00%    100.00% |           0      0.00%    100.00% |           0      0.00%    100.00% |           0      0.00%    100.00% |           0      0.00%    100.00%
system.ruby.SimicsNetworkPortInterface_Controller.MessageSend::total       296520                      
system.ruby.SimicsNetworkPortInterface_Controller.MessageRecv |       47920     16.16%     16.16% |      148260     50.00%     66.16% |       12435      4.19%     70.35% |       13554      4.57%     74.93% |       12198      4.11%     79.04% |       13521      4.56%     83.60% |       12401      4.18%     87.78% |       13807      4.66%     92.44% |       10875      3.67%     96.11% |       11549      3.89%    100.00% |           0      0.00%    100.00% |           0      0.00%    100.00% |           0      0.00%    100.00% |           0      0.00%    100.00% |           0      0.00%    100.00% |           0      0.00%    100.00% |           0      0.00%    100.00% |           0      0.00%    100.00% |           0      0.00%    100.00% |           0      0.00%    100.00% |           0      0.00%    100.00% |           0      0.00%    100.00% |           0      0.00%    100.00% |           0      0.00%    100.00% |           0      0.00%    100.00% |           0      0.00%    100.00% |           0      0.00%    100.00% |           0      0.00%    100.00% |           0      0.00%    100.00% |           0      0.00%    100.00% |           0      0.00%    100.00% |           0      0.00%    100.00%
system.ruby.SimicsNetworkPortInterface_Controller.MessageRecv::total       296520                      
system.ruby.SimicsNetworkPortInterface_Controller.A.MessageSend |       47920     16.16%     16.16% |      148260     50.00%     66.16% |       12435      4.19%     70.35% |       13554      4.57%     74.93% |       12198      4.11%     79.04% |       13521      4.56%     83.60% |       12401      4.18%     87.78% |       13807      4.66%     92.44% |       10875      3.67%     96.11% |       11549      3.89%    100.00% |           0      0.00%    100.00% |           0      0.00%    100.00% |           0      0.00%    100.00% |           0      0.00%    100.00% |           0      0.00%    100.00% |           0      0.00%    100.00% |           0      0.00%    100.00% |           0      0.00%    100.00% |           0      0.00%    100.00% |           0      0.00%    100.00% |           0      0.00%    100.00% |           0      0.00%    100.00% |           0      0.00%    100.00% |           0      0.00%    100.00% |           0      0.00%    100.00% |           0      0.00%    100.00% |           0      0.00%    100.00% |           0      0.00%    100.00% |           0      0.00%    100.00% |           0      0.00%    100.00% |           0      0.00%    100.00% |           0      0.00%    100.00%
system.ruby.SimicsNetworkPortInterface_Controller.A.MessageSend::total       296520                      
system.ruby.SimicsNetworkPortInterface_Controller.A.MessageRecv |       47920     16.16%     16.16% |      148260     50.00%     66.16% |       12435      4.19%     70.35% |       13554      4.57%     74.93% |       12198      4.11%     79.04% |       13521      4.56%     83.60% |       12401      4.18%     87.78% |       13807      4.66%     92.44% |       10875      3.67%     96.11% |       11549      3.89%    100.00% |           0      0.00%    100.00% |           0      0.00%    100.00% |           0      0.00%    100.00% |           0      0.00%    100.00% |           0      0.00%    100.00% |           0      0.00%    100.00% |           0      0.00%    100.00% |           0      0.00%    100.00% |           0      0.00%    100.00% |           0      0.00%    100.00% |           0      0.00%    100.00% |           0      0.00%    100.00% |           0      0.00%    100.00% |           0      0.00%    100.00% |           0      0.00%    100.00% |           0      0.00%    100.00% |           0      0.00%    100.00% |           0      0.00%    100.00% |           0      0.00%    100.00% |           0      0.00%    100.00% |           0      0.00%    100.00% |           0      0.00%    100.00%
system.ruby.SimicsNetworkPortInterface_Controller.A.MessageRecv::total       296520                      
system.switch_cpus.kern.inst.arm                    0                       # number of arm instructions executed
system.switch_cpus.kern.inst.quiesce                0                       # number of quiesce instructions executed

---------- End Simulation Statistics   ----------
