
---------- Begin Simulation Statistics ----------
sim_seconds                                  0.153834                       # Number of seconds simulated
sim_ticks                                153834470000                       # Number of ticks simulated
final_tick                               5330002548500                       # Number of ticks from beginning of simulation (restored from checkpoints and never reset)
sim_freq                                 1000000000000                       # Frequency of simulated ticks
host_inst_rate                                  30442                       # Simulator instruction rate (inst/s)
host_op_rate                                    57961                       # Simulator op (including micro ops) rate (op/s)
host_tick_rate                               72508975                       # Simulator tick rate (ticks/s)
host_mem_usage                                4032996                       # Number of bytes of host memory used
host_seconds                                  2121.59                       # Real time elapsed on the host
sim_insts                                    64586126                       # Number of instructions simulated
sim_ops                                     122970461                       # Number of ops (including micro ops) simulated
system.voltage_domain.voltage                       1                       # Voltage in Volts
system.clk_domain.clock                           500                       # Clock period in ticks
system.mem_ctrls0.bytes_read::ruby.dir_cntrl0     25268992                       # Number of bytes read from this memory
system.mem_ctrls0.bytes_read::total          25268992                       # Number of bytes read from this memory
system.mem_ctrls0.bytes_written::ruby.dir_cntrl0     21421568                       # Number of bytes written to this memory
system.mem_ctrls0.bytes_written::total       21421568                       # Number of bytes written to this memory
system.mem_ctrls0.num_reads::ruby.dir_cntrl0       394828                       # Number of read requests responded to by this memory
system.mem_ctrls0.num_reads::total             394828                       # Number of read requests responded to by this memory
system.mem_ctrls0.num_writes::ruby.dir_cntrl0       334712                       # Number of write requests responded to by this memory
system.mem_ctrls0.num_writes::total            334712                       # Number of write requests responded to by this memory
system.mem_ctrls0.bw_read::ruby.dir_cntrl0    164260923                       # Total read bandwidth from this memory (bytes/s)
system.mem_ctrls0.bw_read::total            164260923                       # Total read bandwidth from this memory (bytes/s)
system.mem_ctrls0.bw_write::ruby.dir_cntrl0    139250767                       # Write bandwidth from this memory (bytes/s)
system.mem_ctrls0.bw_write::total           139250767                       # Write bandwidth from this memory (bytes/s)
system.mem_ctrls0.bw_total::ruby.dir_cntrl0    303511690                       # Total bandwidth to/from this memory (bytes/s)
system.mem_ctrls0.bw_total::total           303511690                       # Total bandwidth to/from this memory (bytes/s)
system.mem_ctrls0.readReqs                     394829                       # Number of read requests accepted
system.mem_ctrls0.writeReqs                    334712                       # Number of write requests accepted
system.mem_ctrls0.readBursts                   394829                       # Number of DRAM read bursts, including those serviced by the write queue
system.mem_ctrls0.writeBursts                  334712                       # Number of DRAM write bursts, including those merged in the write queue
system.mem_ctrls0.bytesReadDRAM              25267968                       # Total number of bytes read from DRAM
system.mem_ctrls0.bytesReadWrQ                   1088                       # Total number of bytes read from write queue
system.mem_ctrls0.bytesWritten               21421440                       # Total number of bytes written to DRAM
system.mem_ctrls0.bytesReadSys               25269056                       # Total read bytes from the system interface side
system.mem_ctrls0.bytesWrittenSys            21421568                       # Total written bytes from the system interface side
system.mem_ctrls0.servicedByWrQ                    17                       # Number of DRAM read bursts serviced by the write queue
system.mem_ctrls0.mergedWrBursts                    0                       # Number of DRAM write bursts merged with an existing one
system.mem_ctrls0.neitherReadNorWriteReqs            0                       # Number of requests that are neither read nor write
system.mem_ctrls0.perBankRdBursts::0            24364                       # Per bank write bursts
system.mem_ctrls0.perBankRdBursts::1            25078                       # Per bank write bursts
system.mem_ctrls0.perBankRdBursts::2            24640                       # Per bank write bursts
system.mem_ctrls0.perBankRdBursts::3            24952                       # Per bank write bursts
system.mem_ctrls0.perBankRdBursts::4            24586                       # Per bank write bursts
system.mem_ctrls0.perBankRdBursts::5            24925                       # Per bank write bursts
system.mem_ctrls0.perBankRdBursts::6            24975                       # Per bank write bursts
system.mem_ctrls0.perBankRdBursts::7            24751                       # Per bank write bursts
system.mem_ctrls0.perBankRdBursts::8            24653                       # Per bank write bursts
system.mem_ctrls0.perBankRdBursts::9            24785                       # Per bank write bursts
system.mem_ctrls0.perBankRdBursts::10           24575                       # Per bank write bursts
system.mem_ctrls0.perBankRdBursts::11           25072                       # Per bank write bursts
system.mem_ctrls0.perBankRdBursts::12           24325                       # Per bank write bursts
system.mem_ctrls0.perBankRdBursts::13           24246                       # Per bank write bursts
system.mem_ctrls0.perBankRdBursts::14           24412                       # Per bank write bursts
system.mem_ctrls0.perBankRdBursts::15           24473                       # Per bank write bursts
system.mem_ctrls0.perBankWrBursts::0            20952                       # Per bank write bursts
system.mem_ctrls0.perBankWrBursts::1            20842                       # Per bank write bursts
system.mem_ctrls0.perBankWrBursts::2            20866                       # Per bank write bursts
system.mem_ctrls0.perBankWrBursts::3            21143                       # Per bank write bursts
system.mem_ctrls0.perBankWrBursts::4            20764                       # Per bank write bursts
system.mem_ctrls0.perBankWrBursts::5            21058                       # Per bank write bursts
system.mem_ctrls0.perBankWrBursts::6            21080                       # Per bank write bursts
system.mem_ctrls0.perBankWrBursts::7            20994                       # Per bank write bursts
system.mem_ctrls0.perBankWrBursts::8            21106                       # Per bank write bursts
system.mem_ctrls0.perBankWrBursts::9            20914                       # Per bank write bursts
system.mem_ctrls0.perBankWrBursts::10           20817                       # Per bank write bursts
system.mem_ctrls0.perBankWrBursts::11           20871                       # Per bank write bursts
system.mem_ctrls0.perBankWrBursts::12           20639                       # Per bank write bursts
system.mem_ctrls0.perBankWrBursts::13           20909                       # Per bank write bursts
system.mem_ctrls0.perBankWrBursts::14           20920                       # Per bank write bursts
system.mem_ctrls0.perBankWrBursts::15           20835                       # Per bank write bursts
system.mem_ctrls0.numRdRetry                   133260                       # Number of times read queue was full causing retry
system.mem_ctrls0.numWrRetry                    16372                       # Number of times write queue was full causing retry
system.mem_ctrls0.totGap                 153834206500                       # Total gap between requests
system.mem_ctrls0.readPktSize::0                    0                       # Read request sizes (log2)
system.mem_ctrls0.readPktSize::1                    0                       # Read request sizes (log2)
system.mem_ctrls0.readPktSize::2                    0                       # Read request sizes (log2)
system.mem_ctrls0.readPktSize::3                    0                       # Read request sizes (log2)
system.mem_ctrls0.readPktSize::4                    0                       # Read request sizes (log2)
system.mem_ctrls0.readPktSize::5                    0                       # Read request sizes (log2)
system.mem_ctrls0.readPktSize::6               394829                       # Read request sizes (log2)
system.mem_ctrls0.writePktSize::0                   0                       # Write request sizes (log2)
system.mem_ctrls0.writePktSize::1                   0                       # Write request sizes (log2)
system.mem_ctrls0.writePktSize::2                   0                       # Write request sizes (log2)
system.mem_ctrls0.writePktSize::3                   0                       # Write request sizes (log2)
system.mem_ctrls0.writePktSize::4                   0                       # Write request sizes (log2)
system.mem_ctrls0.writePktSize::5                   0                       # Write request sizes (log2)
system.mem_ctrls0.writePktSize::6              334712                       # Write request sizes (log2)
system.mem_ctrls0.rdQLenPdf::0                 204830                       # What read queue length does an incoming req see
system.mem_ctrls0.rdQLenPdf::1                   5928                       # What read queue length does an incoming req see
system.mem_ctrls0.rdQLenPdf::2                   3218                       # What read queue length does an incoming req see
system.mem_ctrls0.rdQLenPdf::3                    693                       # What read queue length does an incoming req see
system.mem_ctrls0.rdQLenPdf::4                    778                       # What read queue length does an incoming req see
system.mem_ctrls0.rdQLenPdf::5                    853                       # What read queue length does an incoming req see
system.mem_ctrls0.rdQLenPdf::6                    886                       # What read queue length does an incoming req see
system.mem_ctrls0.rdQLenPdf::7                    970                       # What read queue length does an incoming req see
system.mem_ctrls0.rdQLenPdf::8                   1074                       # What read queue length does an incoming req see
system.mem_ctrls0.rdQLenPdf::9                   1088                       # What read queue length does an incoming req see
system.mem_ctrls0.rdQLenPdf::10                  1087                       # What read queue length does an incoming req see
system.mem_ctrls0.rdQLenPdf::11                  1116                       # What read queue length does an incoming req see
system.mem_ctrls0.rdQLenPdf::12                  1265                       # What read queue length does an incoming req see
system.mem_ctrls0.rdQLenPdf::13                  1292                       # What read queue length does an incoming req see
system.mem_ctrls0.rdQLenPdf::14                  1294                       # What read queue length does an incoming req see
system.mem_ctrls0.rdQLenPdf::15                  1273                       # What read queue length does an incoming req see
system.mem_ctrls0.rdQLenPdf::16                  1364                       # What read queue length does an incoming req see
system.mem_ctrls0.rdQLenPdf::17                  1357                       # What read queue length does an incoming req see
system.mem_ctrls0.rdQLenPdf::18                  1408                       # What read queue length does an incoming req see
system.mem_ctrls0.rdQLenPdf::19                  1377                       # What read queue length does an incoming req see
system.mem_ctrls0.rdQLenPdf::20                  1380                       # What read queue length does an incoming req see
system.mem_ctrls0.rdQLenPdf::21                  1500                       # What read queue length does an incoming req see
system.mem_ctrls0.rdQLenPdf::22                  1552                       # What read queue length does an incoming req see
system.mem_ctrls0.rdQLenPdf::23                  1624                       # What read queue length does an incoming req see
system.mem_ctrls0.rdQLenPdf::24                  1659                       # What read queue length does an incoming req see
system.mem_ctrls0.rdQLenPdf::25                  1743                       # What read queue length does an incoming req see
system.mem_ctrls0.rdQLenPdf::26                  1960                       # What read queue length does an incoming req see
system.mem_ctrls0.rdQLenPdf::27                  2137                       # What read queue length does an incoming req see
system.mem_ctrls0.rdQLenPdf::28                  2511                       # What read queue length does an incoming req see
system.mem_ctrls0.rdQLenPdf::29                  2774                       # What read queue length does an incoming req see
system.mem_ctrls0.rdQLenPdf::30                  3514                       # What read queue length does an incoming req see
system.mem_ctrls0.rdQLenPdf::31                139307                       # What read queue length does an incoming req see
system.mem_ctrls0.wrQLenPdf::0                  48426                       # What write queue length does an incoming req see
system.mem_ctrls0.wrQLenPdf::1                  50948                       # What write queue length does an incoming req see
system.mem_ctrls0.wrQLenPdf::2                  52697                       # What write queue length does an incoming req see
system.mem_ctrls0.wrQLenPdf::3                  52936                       # What write queue length does an incoming req see
system.mem_ctrls0.wrQLenPdf::4                  54150                       # What write queue length does an incoming req see
system.mem_ctrls0.wrQLenPdf::5                  16524                       # What write queue length does an incoming req see
system.mem_ctrls0.wrQLenPdf::6                  21949                       # What write queue length does an incoming req see
system.mem_ctrls0.wrQLenPdf::7                  37082                       # What write queue length does an incoming req see
system.mem_ctrls0.bytesPerActivate::samples       216134                       # Bytes accessed per row activation
system.mem_ctrls0.bytesPerActivate::mean   216.020062                       # Bytes accessed per row activation
system.mem_ctrls0.bytesPerActivate::gmean   164.201176                       # Bytes accessed per row activation
system.mem_ctrls0.bytesPerActivate::stdev   165.819186                       # Bytes accessed per row activation
system.mem_ctrls0.bytesPerActivate::0-127        68757     31.81%     31.81% # Bytes accessed per row activation
system.mem_ctrls0.bytesPerActivate::128-255        54693     25.31%     57.12% # Bytes accessed per row activation
system.mem_ctrls0.bytesPerActivate::256-383        69818     32.30%     89.42% # Bytes accessed per row activation
system.mem_ctrls0.bytesPerActivate::384-511        10355      4.79%     94.21% # Bytes accessed per row activation
system.mem_ctrls0.bytesPerActivate::512-639         5741      2.66%     96.87% # Bytes accessed per row activation
system.mem_ctrls0.bytesPerActivate::640-767         2829      1.31%     98.18% # Bytes accessed per row activation
system.mem_ctrls0.bytesPerActivate::768-895         1461      0.68%     98.85% # Bytes accessed per row activation
system.mem_ctrls0.bytesPerActivate::896-1023          947      0.44%     99.29% # Bytes accessed per row activation
system.mem_ctrls0.bytesPerActivate::1024-1151         1533      0.71%    100.00% # Bytes accessed per row activation
system.mem_ctrls0.bytesPerActivate::total       216134                       # Bytes accessed per row activation
system.mem_ctrls0.rdPerTurnAround::samples        49953                       # Reads before turning the bus around for writes
system.mem_ctrls0.rdPerTurnAround::mean      7.903489                       # Reads before turning the bus around for writes
system.mem_ctrls0.rdPerTurnAround::stdev    18.974113                       # Reads before turning the bus around for writes
system.mem_ctrls0.rdPerTurnAround::0-127        49945     99.98%     99.98% # Reads before turning the bus around for writes
system.mem_ctrls0.rdPerTurnAround::128-255            7      0.01%    100.00% # Reads before turning the bus around for writes
system.mem_ctrls0.rdPerTurnAround::3968-4095            1      0.00%    100.00% # Reads before turning the bus around for writes
system.mem_ctrls0.rdPerTurnAround::total        49953                       # Reads before turning the bus around for writes
system.mem_ctrls0.wrPerTurnAround::samples        49953                       # Writes before turning the bus around for reads
system.mem_ctrls0.wrPerTurnAround::mean      6.700498                       # Writes before turning the bus around for reads
system.mem_ctrls0.wrPerTurnAround::gmean     6.087868                       # Writes before turning the bus around for reads
system.mem_ctrls0.wrPerTurnAround::stdev     3.534702                       # Writes before turning the bus around for reads
system.mem_ctrls0.wrPerTurnAround::4-7          40251     80.58%     80.58% # Writes before turning the bus around for reads
system.mem_ctrls0.wrPerTurnAround::8-11          1867      3.74%     84.32% # Writes before turning the bus around for reads
system.mem_ctrls0.wrPerTurnAround::12-15         5036     10.08%     94.40% # Writes before turning the bus around for reads
system.mem_ctrls0.wrPerTurnAround::16-19         2799      5.60%    100.00% # Writes before turning the bus around for reads
system.mem_ctrls0.wrPerTurnAround::total        49953                       # Writes before turning the bus around for reads
system.mem_ctrls0.totQLat                 66009687810                       # Total ticks spent queuing
system.mem_ctrls0.totMemAccLat            73412412810                       # Total ticks spent from burst creation until serviced by the DRAM
system.mem_ctrls0.totBusLat                1974060000                       # Total ticks spent in databus transfers
system.mem_ctrls0.avgQLat                   167192.71                       # Average queueing delay per DRAM burst
system.mem_ctrls0.avgBusLat                   5000.00                       # Average bus latency per DRAM burst
system.mem_ctrls0.avgMemAccLat              185942.71                       # Average memory access latency per DRAM burst
system.mem_ctrls0.avgRdBW                      164.25                       # Average DRAM read bandwidth in MiByte/s
system.mem_ctrls0.avgWrBW                      139.25                       # Average achieved write bandwidth in MiByte/s
system.mem_ctrls0.avgRdBWSys                   164.26                       # Average system read bandwidth in MiByte/s
system.mem_ctrls0.avgWrBWSys                   139.25                       # Average system write bandwidth in MiByte/s
system.mem_ctrls0.peakBW                     12800.00                       # Theoretical peak bandwidth in MiByte/s
system.mem_ctrls0.busUtil                        2.37                       # Data bus utilization in percentage
system.mem_ctrls0.busUtilRead                    1.28                       # Data bus utilization in percentage for reads
system.mem_ctrls0.busUtilWrite                   1.09                       # Data bus utilization in percentage for writes
system.mem_ctrls0.avgRdQLen                      1.44                       # Average read queue length when enqueuing
system.mem_ctrls0.avgWrQLen                      2.99                       # Average write queue length when enqueuing
system.mem_ctrls0.readRowHits                  294754                       # Number of row buffer hits during reads
system.mem_ctrls0.writeRowHits                 218632                       # Number of row buffer hits during writes
system.mem_ctrls0.readRowHitRate                74.66                       # Row buffer hit rate for reads
system.mem_ctrls0.writeRowHitRate               65.32                       # Row buffer hit rate for writes
system.mem_ctrls0.avgGap                    210864.37                       # Average gap between requests
system.mem_ctrls0.pageHitRate                   70.37                       # Row buffer hit rate, read and write combined
system.mem_ctrls0.memoryStateTime::IDLE   26565825750                       # Time in different power states
system.mem_ctrls0.memoryStateTime::REF     5136820000                       # Time in different power states
system.mem_ctrls0.memoryStateTime::PRE_PDN            0                       # Time in different power states
system.mem_ctrls0.memoryStateTime::ACT   122130569250                       # Time in different power states
system.mem_ctrls0.memoryStateTime::ACT_PDN            0                       # Time in different power states
system.mem_ctrls0.actEnergy::0              822104640                       # Energy for activate commands per rank (pJ)
system.mem_ctrls0.actEnergy::1              811860840                       # Energy for activate commands per rank (pJ)
system.mem_ctrls0.preEnergy::0              448569000                       # Energy for precharge commands per rank (pJ)
system.mem_ctrls0.preEnergy::1              442979625                       # Energy for precharge commands per rank (pJ)
system.mem_ctrls0.readEnergy::0            1546506000                       # Energy for read commands per rank (pJ)
system.mem_ctrls0.readEnergy::1            1532973000                       # Energy for read commands per rank (pJ)
system.mem_ctrls0.writeEnergy::0           1086689520                       # Energy for write commands per rank (pJ)
system.mem_ctrls0.writeEnergy::1           1082231280                       # Energy for write commands per rank (pJ)
system.mem_ctrls0.refreshEnergy::0        10047619920                       # Energy for refresh commands per rank (pJ)
system.mem_ctrls0.refreshEnergy::1        10047619920                       # Energy for refresh commands per rank (pJ)
system.mem_ctrls0.actBackEnergy::0        61128325035                       # Energy for active background per rank (pJ)
system.mem_ctrls0.actBackEnergy::1        60870764835                       # Energy for active background per rank (pJ)
system.mem_ctrls0.preBackEnergy::0        38678583000                       # Energy for precharge background per rank (pJ)
system.mem_ctrls0.preBackEnergy::1        38904513000                       # Energy for precharge background per rank (pJ)
system.mem_ctrls0.totalEnergy::0         113758397115                       # Total energy per rank (pJ)
system.mem_ctrls0.totalEnergy::1         113692942500                       # Total energy per rank (pJ)
system.mem_ctrls0.averagePower::0          739.491840                       # Core power per rank (mW)
system.mem_ctrls0.averagePower::1          739.066350                       # Core power per rank (mW)
system.mem_ctrls1.bytes_read::ruby.dir_cntrl1     24508736                       # Number of bytes read from this memory
system.mem_ctrls1.bytes_read::total          24508736                       # Number of bytes read from this memory
system.mem_ctrls1.bytes_written::ruby.dir_cntrl1     20683648                       # Number of bytes written to this memory
system.mem_ctrls1.bytes_written::total       20683648                       # Number of bytes written to this memory
system.mem_ctrls1.num_reads::ruby.dir_cntrl1       382949                       # Number of read requests responded to by this memory
system.mem_ctrls1.num_reads::total             382949                       # Number of read requests responded to by this memory
system.mem_ctrls1.num_writes::ruby.dir_cntrl1       323182                       # Number of write requests responded to by this memory
system.mem_ctrls1.num_writes::total            323182                       # Number of write requests responded to by this memory
system.mem_ctrls1.bw_read::ruby.dir_cntrl1    159318883                       # Total read bandwidth from this memory (bytes/s)
system.mem_ctrls1.bw_read::total            159318883                       # Total read bandwidth from this memory (bytes/s)
system.mem_ctrls1.bw_write::ruby.dir_cntrl1    134453923                       # Write bandwidth from this memory (bytes/s)
system.mem_ctrls1.bw_write::total           134453923                       # Write bandwidth from this memory (bytes/s)
system.mem_ctrls1.bw_total::ruby.dir_cntrl1    293772807                       # Total bandwidth to/from this memory (bytes/s)
system.mem_ctrls1.bw_total::total           293772807                       # Total bandwidth to/from this memory (bytes/s)
system.mem_ctrls1.readReqs                     382949                       # Number of read requests accepted
system.mem_ctrls1.writeReqs                    323182                       # Number of write requests accepted
system.mem_ctrls1.readBursts                   382949                       # Number of DRAM read bursts, including those serviced by the write queue
system.mem_ctrls1.writeBursts                  323182                       # Number of DRAM write bursts, including those merged in the write queue
system.mem_ctrls1.bytesReadDRAM              24507264                       # Total number of bytes read from DRAM
system.mem_ctrls1.bytesReadWrQ                   1472                       # Total number of bytes read from write queue
system.mem_ctrls1.bytesWritten               20683584                       # Total number of bytes written to DRAM
system.mem_ctrls1.bytesReadSys               24508736                       # Total read bytes from the system interface side
system.mem_ctrls1.bytesWrittenSys            20683648                       # Total written bytes from the system interface side
system.mem_ctrls1.servicedByWrQ                    23                       # Number of DRAM read bursts serviced by the write queue
system.mem_ctrls1.mergedWrBursts                    0                       # Number of DRAM write bursts merged with an existing one
system.mem_ctrls1.neitherReadNorWriteReqs            0                       # Number of requests that are neither read nor write
system.mem_ctrls1.perBankRdBursts::0            23652                       # Per bank write bursts
system.mem_ctrls1.perBankRdBursts::1            24327                       # Per bank write bursts
system.mem_ctrls1.perBankRdBursts::2            23891                       # Per bank write bursts
system.mem_ctrls1.perBankRdBursts::3            24204                       # Per bank write bursts
system.mem_ctrls1.perBankRdBursts::4            23868                       # Per bank write bursts
system.mem_ctrls1.perBankRdBursts::5            24184                       # Per bank write bursts
system.mem_ctrls1.perBankRdBursts::6            24228                       # Per bank write bursts
system.mem_ctrls1.perBankRdBursts::7            24041                       # Per bank write bursts
system.mem_ctrls1.perBankRdBursts::8            23915                       # Per bank write bursts
system.mem_ctrls1.perBankRdBursts::9            24036                       # Per bank write bursts
system.mem_ctrls1.perBankRdBursts::10           23806                       # Per bank write bursts
system.mem_ctrls1.perBankRdBursts::11           24338                       # Per bank write bursts
system.mem_ctrls1.perBankRdBursts::12           23594                       # Per bank write bursts
system.mem_ctrls1.perBankRdBursts::13           23492                       # Per bank write bursts
system.mem_ctrls1.perBankRdBursts::14           23598                       # Per bank write bursts
system.mem_ctrls1.perBankRdBursts::15           23752                       # Per bank write bursts
system.mem_ctrls1.perBankWrBursts::0            20233                       # Per bank write bursts
system.mem_ctrls1.perBankWrBursts::1            20141                       # Per bank write bursts
system.mem_ctrls1.perBankWrBursts::2            20160                       # Per bank write bursts
system.mem_ctrls1.perBankWrBursts::3            20432                       # Per bank write bursts
system.mem_ctrls1.perBankWrBursts::4            20051                       # Per bank write bursts
system.mem_ctrls1.perBankWrBursts::5            20350                       # Per bank write bursts
system.mem_ctrls1.perBankWrBursts::6            20345                       # Per bank write bursts
system.mem_ctrls1.perBankWrBursts::7            20265                       # Per bank write bursts
system.mem_ctrls1.perBankWrBursts::8            20380                       # Per bank write bursts
system.mem_ctrls1.perBankWrBursts::9            20188                       # Per bank write bursts
system.mem_ctrls1.perBankWrBursts::10           20100                       # Per bank write bursts
system.mem_ctrls1.perBankWrBursts::11           20155                       # Per bank write bursts
system.mem_ctrls1.perBankWrBursts::12           19924                       # Per bank write bursts
system.mem_ctrls1.perBankWrBursts::13           20187                       # Per bank write bursts
system.mem_ctrls1.perBankWrBursts::14           20149                       # Per bank write bursts
system.mem_ctrls1.perBankWrBursts::15           20121                       # Per bank write bursts
system.mem_ctrls1.numRdRetry                    93949                       # Number of times read queue was full causing retry
system.mem_ctrls1.numWrRetry                    13122                       # Number of times write queue was full causing retry
system.mem_ctrls1.totGap                 153833715500                       # Total gap between requests
system.mem_ctrls1.readPktSize::0                    0                       # Read request sizes (log2)
system.mem_ctrls1.readPktSize::1                    0                       # Read request sizes (log2)
system.mem_ctrls1.readPktSize::2                    0                       # Read request sizes (log2)
system.mem_ctrls1.readPktSize::3                    0                       # Read request sizes (log2)
system.mem_ctrls1.readPktSize::4                    0                       # Read request sizes (log2)
system.mem_ctrls1.readPktSize::5                    0                       # Read request sizes (log2)
system.mem_ctrls1.readPktSize::6               382949                       # Read request sizes (log2)
system.mem_ctrls1.writePktSize::0                   0                       # Write request sizes (log2)
system.mem_ctrls1.writePktSize::1                   0                       # Write request sizes (log2)
system.mem_ctrls1.writePktSize::2                   0                       # Write request sizes (log2)
system.mem_ctrls1.writePktSize::3                   0                       # Write request sizes (log2)
system.mem_ctrls1.writePktSize::4                   0                       # Write request sizes (log2)
system.mem_ctrls1.writePktSize::5                   0                       # Write request sizes (log2)
system.mem_ctrls1.writePktSize::6              323182                       # Write request sizes (log2)
system.mem_ctrls1.rdQLenPdf::0                 200579                       # What read queue length does an incoming req see
system.mem_ctrls1.rdQLenPdf::1                   1639                       # What read queue length does an incoming req see
system.mem_ctrls1.rdQLenPdf::2                   1030                       # What read queue length does an incoming req see
system.mem_ctrls1.rdQLenPdf::3                   1248                       # What read queue length does an incoming req see
system.mem_ctrls1.rdQLenPdf::4                   1540                       # What read queue length does an incoming req see
system.mem_ctrls1.rdQLenPdf::5                   1700                       # What read queue length does an incoming req see
system.mem_ctrls1.rdQLenPdf::6                   1906                       # What read queue length does an incoming req see
system.mem_ctrls1.rdQLenPdf::7                   1996                       # What read queue length does an incoming req see
system.mem_ctrls1.rdQLenPdf::8                   2078                       # What read queue length does an incoming req see
system.mem_ctrls1.rdQLenPdf::9                   2157                       # What read queue length does an incoming req see
system.mem_ctrls1.rdQLenPdf::10                  2134                       # What read queue length does an incoming req see
system.mem_ctrls1.rdQLenPdf::11                  2212                       # What read queue length does an incoming req see
system.mem_ctrls1.rdQLenPdf::12                  2228                       # What read queue length does an incoming req see
system.mem_ctrls1.rdQLenPdf::13                  2423                       # What read queue length does an incoming req see
system.mem_ctrls1.rdQLenPdf::14                  2456                       # What read queue length does an incoming req see
system.mem_ctrls1.rdQLenPdf::15                  2521                       # What read queue length does an incoming req see
system.mem_ctrls1.rdQLenPdf::16                  2663                       # What read queue length does an incoming req see
system.mem_ctrls1.rdQLenPdf::17                  2773                       # What read queue length does an incoming req see
system.mem_ctrls1.rdQLenPdf::18                  2937                       # What read queue length does an incoming req see
system.mem_ctrls1.rdQLenPdf::19                  2974                       # What read queue length does an incoming req see
system.mem_ctrls1.rdQLenPdf::20                  3027                       # What read queue length does an incoming req see
system.mem_ctrls1.rdQLenPdf::21                  3119                       # What read queue length does an incoming req see
system.mem_ctrls1.rdQLenPdf::22                  3173                       # What read queue length does an incoming req see
system.mem_ctrls1.rdQLenPdf::23                  3278                       # What read queue length does an incoming req see
system.mem_ctrls1.rdQLenPdf::24                  3337                       # What read queue length does an incoming req see
system.mem_ctrls1.rdQLenPdf::25                  3396                       # What read queue length does an incoming req see
system.mem_ctrls1.rdQLenPdf::26                  3621                       # What read queue length does an incoming req see
system.mem_ctrls1.rdQLenPdf::27                  3938                       # What read queue length does an incoming req see
system.mem_ctrls1.rdQLenPdf::28                  4240                       # What read queue length does an incoming req see
system.mem_ctrls1.rdQLenPdf::29                  4631                       # What read queue length does an incoming req see
system.mem_ctrls1.rdQLenPdf::30                  5207                       # What read queue length does an incoming req see
system.mem_ctrls1.rdQLenPdf::31                100765                       # What read queue length does an incoming req see
system.mem_ctrls1.wrQLenPdf::0                  46709                       # What write queue length does an incoming req see
system.mem_ctrls1.wrQLenPdf::1                  50466                       # What write queue length does an incoming req see
system.mem_ctrls1.wrQLenPdf::2                  52012                       # What write queue length does an incoming req see
system.mem_ctrls1.wrQLenPdf::3                  52937                       # What write queue length does an incoming req see
system.mem_ctrls1.wrQLenPdf::4                  53768                       # What write queue length does an incoming req see
system.mem_ctrls1.wrQLenPdf::5                  16836                       # What write queue length does an incoming req see
system.mem_ctrls1.wrQLenPdf::6                  20331                       # What write queue length does an incoming req see
system.mem_ctrls1.wrQLenPdf::7                  30123                       # What write queue length does an incoming req see
system.mem_ctrls1.bytesPerActivate::samples       187281                       # Bytes accessed per row activation
system.mem_ctrls1.bytesPerActivate::mean   241.297302                       # Bytes accessed per row activation
system.mem_ctrls1.bytesPerActivate::gmean   190.298247                       # Bytes accessed per row activation
system.mem_ctrls1.bytesPerActivate::stdev   170.136532                       # Bytes accessed per row activation
system.mem_ctrls1.bytesPerActivate::0-127        40373     21.56%     21.56% # Bytes accessed per row activation
system.mem_ctrls1.bytesPerActivate::128-255        53286     28.45%     50.01% # Bytes accessed per row activation
system.mem_ctrls1.bytesPerActivate::256-383        69997     37.38%     87.39% # Bytes accessed per row activation
system.mem_ctrls1.bytesPerActivate::384-511        10389      5.55%     92.93% # Bytes accessed per row activation
system.mem_ctrls1.bytesPerActivate::512-639         6012      3.21%     96.14% # Bytes accessed per row activation
system.mem_ctrls1.bytesPerActivate::640-767         2798      1.49%     97.64% # Bytes accessed per row activation
system.mem_ctrls1.bytesPerActivate::768-895         1512      0.81%     98.44% # Bytes accessed per row activation
system.mem_ctrls1.bytesPerActivate::896-1023         1003      0.54%     98.98% # Bytes accessed per row activation
system.mem_ctrls1.bytesPerActivate::1024-1151         1911      1.02%    100.00% # Bytes accessed per row activation
system.mem_ctrls1.bytesPerActivate::total       187281                       # Bytes accessed per row activation
system.mem_ctrls1.rdPerTurnAround::samples        48418                       # Reads before turning the bus around for writes
system.mem_ctrls1.rdPerTurnAround::mean      7.908608                       # Reads before turning the bus around for writes
system.mem_ctrls1.rdPerTurnAround::stdev    15.640130                       # Reads before turning the bus around for writes
system.mem_ctrls1.rdPerTurnAround::0-127        48412     99.99%     99.99% # Reads before turning the bus around for writes
system.mem_ctrls1.rdPerTurnAround::128-255            4      0.01%    100.00% # Reads before turning the bus around for writes
system.mem_ctrls1.rdPerTurnAround::1152-1279            1      0.00%    100.00% # Reads before turning the bus around for writes
system.mem_ctrls1.rdPerTurnAround::2816-2943            1      0.00%    100.00% # Reads before turning the bus around for writes
system.mem_ctrls1.rdPerTurnAround::total        48418                       # Reads before turning the bus around for writes
system.mem_ctrls1.wrPerTurnAround::samples        48418                       # Writes before turning the bus around for reads
system.mem_ctrls1.wrPerTurnAround::mean      6.674811                       # Writes before turning the bus around for reads
system.mem_ctrls1.wrPerTurnAround::gmean     6.079829                       # Writes before turning the bus around for reads
system.mem_ctrls1.wrPerTurnAround::stdev     3.471299                       # Writes before turning the bus around for reads
system.mem_ctrls1.wrPerTurnAround::4-7          38579     79.68%     79.68% # Writes before turning the bus around for reads
system.mem_ctrls1.wrPerTurnAround::8-11          2776      5.73%     85.41% # Writes before turning the bus around for reads
system.mem_ctrls1.wrPerTurnAround::12-15         4339      8.96%     94.37% # Writes before turning the bus around for reads
system.mem_ctrls1.wrPerTurnAround::16-19         2724      5.63%    100.00% # Writes before turning the bus around for reads
system.mem_ctrls1.wrPerTurnAround::total        48418                       # Writes before turning the bus around for reads
system.mem_ctrls1.totQLat                 58842949226                       # Total ticks spent queuing
system.mem_ctrls1.totMemAccLat            66022811726                       # Total ticks spent from burst creation until serviced by the DRAM
system.mem_ctrls1.totBusLat                1914630000                       # Total ticks spent in databus transfers
system.mem_ctrls1.avgQLat                   153666.63                       # Average queueing delay per DRAM burst
system.mem_ctrls1.avgBusLat                   5000.00                       # Average bus latency per DRAM burst
system.mem_ctrls1.avgMemAccLat              172416.63                       # Average memory access latency per DRAM burst
system.mem_ctrls1.avgRdBW                      159.31                       # Average DRAM read bandwidth in MiByte/s
system.mem_ctrls1.avgWrBW                      134.45                       # Average achieved write bandwidth in MiByte/s
system.mem_ctrls1.avgRdBWSys                   159.32                       # Average system read bandwidth in MiByte/s
system.mem_ctrls1.avgWrBWSys                   134.45                       # Average system write bandwidth in MiByte/s
system.mem_ctrls1.peakBW                     12800.00                       # Theoretical peak bandwidth in MiByte/s
system.mem_ctrls1.busUtil                        2.30                       # Data bus utilization in percentage
system.mem_ctrls1.busUtilRead                    1.24                       # Data bus utilization in percentage for reads
system.mem_ctrls1.busUtilWrite                   1.05                       # Data bus utilization in percentage for writes
system.mem_ctrls1.avgRdQLen                      1.39                       # Average read queue length when enqueuing
system.mem_ctrls1.avgWrQLen                      2.99                       # Average write queue length when enqueuing
system.mem_ctrls1.readRowHits                  291442                       # Number of row buffer hits during reads
system.mem_ctrls1.writeRowHits                 227382                       # Number of row buffer hits during writes
system.mem_ctrls1.readRowHitRate                76.11                       # Row buffer hit rate for reads
system.mem_ctrls1.writeRowHitRate               70.36                       # Row buffer hit rate for writes
system.mem_ctrls1.avgGap                    217854.36                       # Average gap between requests
system.mem_ctrls1.pageHitRate                   73.48                       # Row buffer hit rate, read and write combined
system.mem_ctrls1.memoryStateTime::IDLE   27041890500                       # Time in different power states
system.mem_ctrls1.memoryStateTime::REF     5136820000                       # Time in different power states
system.mem_ctrls1.memoryStateTime::PRE_PDN            0                       # Time in different power states
system.mem_ctrls1.memoryStateTime::ACT   121654587750                       # Time in different power states
system.mem_ctrls1.memoryStateTime::ACT_PDN            0                       # Time in different power states
system.mem_ctrls1.actEnergy::0              713845440                       # Energy for activate commands per rank (pJ)
system.mem_ctrls1.actEnergy::1              701991360                       # Energy for activate commands per rank (pJ)
system.mem_ctrls1.preEnergy::0              389499000                       # Energy for precharge commands per rank (pJ)
system.mem_ctrls1.preEnergy::1              383031000                       # Energy for precharge commands per rank (pJ)
system.mem_ctrls1.readEnergy::0            1500673200                       # Energy for read commands per rank (pJ)
system.mem_ctrls1.readEnergy::1            1486095000                       # Energy for read commands per rank (pJ)
system.mem_ctrls1.writeEnergy::0           1049604480                       # Energy for write commands per rank (pJ)
system.mem_ctrls1.writeEnergy::1           1044601920                       # Energy for write commands per rank (pJ)
system.mem_ctrls1.refreshEnergy::0        10047619920                       # Energy for refresh commands per rank (pJ)
system.mem_ctrls1.refreshEnergy::1        10047619920                       # Energy for refresh commands per rank (pJ)
system.mem_ctrls1.actBackEnergy::0        60096376800                       # Energy for active background per rank (pJ)
system.mem_ctrls1.actBackEnergy::1        59618953350                       # Energy for active background per rank (pJ)
system.mem_ctrls1.preBackEnergy::0        39583851000                       # Energy for precharge background per rank (pJ)
system.mem_ctrls1.preBackEnergy::1        40002643500                       # Energy for precharge background per rank (pJ)
system.mem_ctrls1.totalEnergy::0         113381469840                       # Total energy per rank (pJ)
system.mem_ctrls1.totalEnergy::1         113284936050                       # Total energy per rank (pJ)
system.mem_ctrls1.averagePower::0          737.041206                       # Core power per rank (mW)
system.mem_ctrls1.averagePower::1          736.413683                       # Core power per rank (mW)
system.mem_ctrls2.bytes_read::ruby.dir_cntrl2     24509120                       # Number of bytes read from this memory
system.mem_ctrls2.bytes_read::total          24509120                       # Number of bytes read from this memory
system.mem_ctrls2.bytes_written::ruby.dir_cntrl2     20685312                       # Number of bytes written to this memory
system.mem_ctrls2.bytes_written::total       20685312                       # Number of bytes written to this memory
system.mem_ctrls2.num_reads::ruby.dir_cntrl2       382955                       # Number of read requests responded to by this memory
system.mem_ctrls2.num_reads::total             382955                       # Number of read requests responded to by this memory
system.mem_ctrls2.num_writes::ruby.dir_cntrl2       323208                       # Number of write requests responded to by this memory
system.mem_ctrls2.num_writes::total            323208                       # Number of write requests responded to by this memory
system.mem_ctrls2.bw_read::ruby.dir_cntrl2    159321380                       # Total read bandwidth from this memory (bytes/s)
system.mem_ctrls2.bw_read::total            159321380                       # Total read bandwidth from this memory (bytes/s)
system.mem_ctrls2.bw_write::ruby.dir_cntrl2    134464740                       # Write bandwidth from this memory (bytes/s)
system.mem_ctrls2.bw_write::total           134464740                       # Write bandwidth from this memory (bytes/s)
system.mem_ctrls2.bw_total::ruby.dir_cntrl2    293786120                       # Total bandwidth to/from this memory (bytes/s)
system.mem_ctrls2.bw_total::total           293786120                       # Total bandwidth to/from this memory (bytes/s)
system.mem_ctrls2.readReqs                     382955                       # Number of read requests accepted
system.mem_ctrls2.writeReqs                    323208                       # Number of write requests accepted
system.mem_ctrls2.readBursts                   382955                       # Number of DRAM read bursts, including those serviced by the write queue
system.mem_ctrls2.writeBursts                  323208                       # Number of DRAM write bursts, including those merged in the write queue
system.mem_ctrls2.bytesReadDRAM              24507968                       # Total number of bytes read from DRAM
system.mem_ctrls2.bytesReadWrQ                   1152                       # Total number of bytes read from write queue
system.mem_ctrls2.bytesWritten               20685312                       # Total number of bytes written to DRAM
system.mem_ctrls2.bytesReadSys               24509120                       # Total read bytes from the system interface side
system.mem_ctrls2.bytesWrittenSys            20685312                       # Total written bytes from the system interface side
system.mem_ctrls2.servicedByWrQ                    18                       # Number of DRAM read bursts serviced by the write queue
system.mem_ctrls2.mergedWrBursts                    0                       # Number of DRAM write bursts merged with an existing one
system.mem_ctrls2.neitherReadNorWriteReqs            0                       # Number of requests that are neither read nor write
system.mem_ctrls2.perBankRdBursts::0            23640                       # Per bank write bursts
system.mem_ctrls2.perBankRdBursts::1            24299                       # Per bank write bursts
system.mem_ctrls2.perBankRdBursts::2            23934                       # Per bank write bursts
system.mem_ctrls2.perBankRdBursts::3            24276                       # Per bank write bursts
system.mem_ctrls2.perBankRdBursts::4            23867                       # Per bank write bursts
system.mem_ctrls2.perBankRdBursts::5            24153                       # Per bank write bursts
system.mem_ctrls2.perBankRdBursts::6            24229                       # Per bank write bursts
system.mem_ctrls2.perBankRdBursts::7            24028                       # Per bank write bursts
system.mem_ctrls2.perBankRdBursts::8            23897                       # Per bank write bursts
system.mem_ctrls2.perBankRdBursts::9            24047                       # Per bank write bursts
system.mem_ctrls2.perBankRdBursts::10           23816                       # Per bank write bursts
system.mem_ctrls2.perBankRdBursts::11           24323                       # Per bank write bursts
system.mem_ctrls2.perBankRdBursts::12           23625                       # Per bank write bursts
system.mem_ctrls2.perBankRdBursts::13           23435                       # Per bank write bursts
system.mem_ctrls2.perBankRdBursts::14           23589                       # Per bank write bursts
system.mem_ctrls2.perBankRdBursts::15           23779                       # Per bank write bursts
system.mem_ctrls2.perBankWrBursts::0            20227                       # Per bank write bursts
system.mem_ctrls2.perBankWrBursts::1            20138                       # Per bank write bursts
system.mem_ctrls2.perBankWrBursts::2            20162                       # Per bank write bursts
system.mem_ctrls2.perBankWrBursts::3            20437                       # Per bank write bursts
system.mem_ctrls2.perBankWrBursts::4            20053                       # Per bank write bursts
system.mem_ctrls2.perBankWrBursts::5            20336                       # Per bank write bursts
system.mem_ctrls2.perBankWrBursts::6            20352                       # Per bank write bursts
system.mem_ctrls2.perBankWrBursts::7            20272                       # Per bank write bursts
system.mem_ctrls2.perBankWrBursts::8            20382                       # Per bank write bursts
system.mem_ctrls2.perBankWrBursts::9            20195                       # Per bank write bursts
system.mem_ctrls2.perBankWrBursts::10           20095                       # Per bank write bursts
system.mem_ctrls2.perBankWrBursts::11           20153                       # Per bank write bursts
system.mem_ctrls2.perBankWrBursts::12           19931                       # Per bank write bursts
system.mem_ctrls2.perBankWrBursts::13           20181                       # Per bank write bursts
system.mem_ctrls2.perBankWrBursts::14           20157                       # Per bank write bursts
system.mem_ctrls2.perBankWrBursts::15           20137                       # Per bank write bursts
system.mem_ctrls2.numRdRetry                    89118                       # Number of times read queue was full causing retry
system.mem_ctrls2.numWrRetry                    12865                       # Number of times write queue was full causing retry
system.mem_ctrls2.totGap                 153833643000                       # Total gap between requests
system.mem_ctrls2.readPktSize::0                    0                       # Read request sizes (log2)
system.mem_ctrls2.readPktSize::1                    0                       # Read request sizes (log2)
system.mem_ctrls2.readPktSize::2                    0                       # Read request sizes (log2)
system.mem_ctrls2.readPktSize::3                    0                       # Read request sizes (log2)
system.mem_ctrls2.readPktSize::4                    0                       # Read request sizes (log2)
system.mem_ctrls2.readPktSize::5                    0                       # Read request sizes (log2)
system.mem_ctrls2.readPktSize::6               382955                       # Read request sizes (log2)
system.mem_ctrls2.writePktSize::0                   0                       # Write request sizes (log2)
system.mem_ctrls2.writePktSize::1                   0                       # Write request sizes (log2)
system.mem_ctrls2.writePktSize::2                   0                       # Write request sizes (log2)
system.mem_ctrls2.writePktSize::3                   0                       # Write request sizes (log2)
system.mem_ctrls2.writePktSize::4                   0                       # Write request sizes (log2)
system.mem_ctrls2.writePktSize::5                   0                       # Write request sizes (log2)
system.mem_ctrls2.writePktSize::6              323208                       # Write request sizes (log2)
system.mem_ctrls2.rdQLenPdf::0                 200840                       # What read queue length does an incoming req see
system.mem_ctrls2.rdQLenPdf::1                   1369                       # What read queue length does an incoming req see
system.mem_ctrls2.rdQLenPdf::2                   1068                       # What read queue length does an incoming req see
system.mem_ctrls2.rdQLenPdf::3                   1242                       # What read queue length does an incoming req see
system.mem_ctrls2.rdQLenPdf::4                   1557                       # What read queue length does an incoming req see
system.mem_ctrls2.rdQLenPdf::5                   1727                       # What read queue length does an incoming req see
system.mem_ctrls2.rdQLenPdf::6                   1918                       # What read queue length does an incoming req see
system.mem_ctrls2.rdQLenPdf::7                   2130                       # What read queue length does an incoming req see
system.mem_ctrls2.rdQLenPdf::8                   2219                       # What read queue length does an incoming req see
system.mem_ctrls2.rdQLenPdf::9                   2389                       # What read queue length does an incoming req see
system.mem_ctrls2.rdQLenPdf::10                  2395                       # What read queue length does an incoming req see
system.mem_ctrls2.rdQLenPdf::11                  2555                       # What read queue length does an incoming req see
system.mem_ctrls2.rdQLenPdf::12                  2605                       # What read queue length does an incoming req see
system.mem_ctrls2.rdQLenPdf::13                  2673                       # What read queue length does an incoming req see
system.mem_ctrls2.rdQLenPdf::14                  2729                       # What read queue length does an incoming req see
system.mem_ctrls2.rdQLenPdf::15                  2752                       # What read queue length does an incoming req see
system.mem_ctrls2.rdQLenPdf::16                  2840                       # What read queue length does an incoming req see
system.mem_ctrls2.rdQLenPdf::17                  2931                       # What read queue length does an incoming req see
system.mem_ctrls2.rdQLenPdf::18                  3049                       # What read queue length does an incoming req see
system.mem_ctrls2.rdQLenPdf::19                  3112                       # What read queue length does an incoming req see
system.mem_ctrls2.rdQLenPdf::20                  3203                       # What read queue length does an incoming req see
system.mem_ctrls2.rdQLenPdf::21                  3263                       # What read queue length does an incoming req see
system.mem_ctrls2.rdQLenPdf::22                  3292                       # What read queue length does an incoming req see
system.mem_ctrls2.rdQLenPdf::23                  3412                       # What read queue length does an incoming req see
system.mem_ctrls2.rdQLenPdf::24                  3518                       # What read queue length does an incoming req see
system.mem_ctrls2.rdQLenPdf::25                  3693                       # What read queue length does an incoming req see
system.mem_ctrls2.rdQLenPdf::26                  3929                       # What read queue length does an incoming req see
system.mem_ctrls2.rdQLenPdf::27                  4116                       # What read queue length does an incoming req see
system.mem_ctrls2.rdQLenPdf::28                  4466                       # What read queue length does an incoming req see
system.mem_ctrls2.rdQLenPdf::29                  4795                       # What read queue length does an incoming req see
system.mem_ctrls2.rdQLenPdf::30                  5313                       # What read queue length does an incoming req see
system.mem_ctrls2.rdQLenPdf::31                 95837                       # What read queue length does an incoming req see
system.mem_ctrls2.wrQLenPdf::0                  46714                       # What write queue length does an incoming req see
system.mem_ctrls2.wrQLenPdf::1                  50453                       # What write queue length does an incoming req see
system.mem_ctrls2.wrQLenPdf::2                  52436                       # What write queue length does an incoming req see
system.mem_ctrls2.wrQLenPdf::3                  53384                       # What write queue length does an incoming req see
system.mem_ctrls2.wrQLenPdf::4                  53834                       # What write queue length does an incoming req see
system.mem_ctrls2.wrQLenPdf::5                  16725                       # What write queue length does an incoming req see
system.mem_ctrls2.wrQLenPdf::6                  20159                       # What write queue length does an incoming req see
system.mem_ctrls2.wrQLenPdf::7                  29503                       # What write queue length does an incoming req see
system.mem_ctrls2.bytesPerActivate::samples       186793                       # Bytes accessed per row activation
system.mem_ctrls2.bytesPerActivate::mean   241.941058                       # Bytes accessed per row activation
system.mem_ctrls2.bytesPerActivate::gmean   191.216487                       # Bytes accessed per row activation
system.mem_ctrls2.bytesPerActivate::stdev   169.662981                       # Bytes accessed per row activation
system.mem_ctrls2.bytesPerActivate::0-127        39670     21.24%     21.24% # Bytes accessed per row activation
system.mem_ctrls2.bytesPerActivate::128-255        52516     28.11%     49.35% # Bytes accessed per row activation
system.mem_ctrls2.bytesPerActivate::256-383        70928     37.97%     87.32% # Bytes accessed per row activation
system.mem_ctrls2.bytesPerActivate::384-511        10513      5.63%     92.95% # Bytes accessed per row activation
system.mem_ctrls2.bytesPerActivate::512-639         5947      3.18%     96.14% # Bytes accessed per row activation
system.mem_ctrls2.bytesPerActivate::640-767         2789      1.49%     97.63% # Bytes accessed per row activation
system.mem_ctrls2.bytesPerActivate::768-895         1498      0.80%     98.43% # Bytes accessed per row activation
system.mem_ctrls2.bytesPerActivate::896-1023         1006      0.54%     98.97% # Bytes accessed per row activation
system.mem_ctrls2.bytesPerActivate::1024-1151         1926      1.03%    100.00% # Bytes accessed per row activation
system.mem_ctrls2.bytesPerActivate::total       186793                       # Bytes accessed per row activation
system.mem_ctrls2.rdPerTurnAround::samples        48496                       # Reads before turning the bus around for writes
system.mem_ctrls2.rdPerTurnAround::mean      7.896239                       # Reads before turning the bus around for writes
system.mem_ctrls2.rdPerTurnAround::stdev    15.692058                       # Reads before turning the bus around for writes
system.mem_ctrls2.rdPerTurnAround::0-127        48490     99.99%     99.99% # Reads before turning the bus around for writes
system.mem_ctrls2.rdPerTurnAround::128-255            4      0.01%    100.00% # Reads before turning the bus around for writes
system.mem_ctrls2.rdPerTurnAround::1152-1279            1      0.00%    100.00% # Reads before turning the bus around for writes
system.mem_ctrls2.rdPerTurnAround::2816-2943            1      0.00%    100.00% # Reads before turning the bus around for writes
system.mem_ctrls2.rdPerTurnAround::total        48496                       # Reads before turning the bus around for writes
system.mem_ctrls2.wrPerTurnAround::samples        48496                       # Writes before turning the bus around for reads
system.mem_ctrls2.wrPerTurnAround::mean      6.664632                       # Writes before turning the bus around for reads
system.mem_ctrls2.wrPerTurnAround::gmean     6.075122                       # Writes before turning the bus around for reads
system.mem_ctrls2.wrPerTurnAround::stdev     3.454276                       # Writes before turning the bus around for reads
system.mem_ctrls2.wrPerTurnAround::4-7          38608     79.61%     79.61% # Writes before turning the bus around for reads
system.mem_ctrls2.wrPerTurnAround::8-11          3008      6.20%     85.81% # Writes before turning the bus around for reads
system.mem_ctrls2.wrPerTurnAround::12-15         4153      8.56%     94.38% # Writes before turning the bus around for reads
system.mem_ctrls2.wrPerTurnAround::16-19         2727      5.62%    100.00% # Writes before turning the bus around for reads
system.mem_ctrls2.wrPerTurnAround::total        48496                       # Writes before turning the bus around for reads
system.mem_ctrls2.totQLat                 58001122126                       # Total ticks spent queuing
system.mem_ctrls2.totMemAccLat            65181190876                       # Total ticks spent from burst creation until serviced by the DRAM
system.mem_ctrls2.totBusLat                1914685000                       # Total ticks spent in databus transfers
system.mem_ctrls2.avgQLat                   151463.88                       # Average queueing delay per DRAM burst
system.mem_ctrls2.avgBusLat                   5000.00                       # Average bus latency per DRAM burst
system.mem_ctrls2.avgMemAccLat              170213.88                       # Average memory access latency per DRAM burst
system.mem_ctrls2.avgRdBW                      159.31                       # Average DRAM read bandwidth in MiByte/s
system.mem_ctrls2.avgWrBW                      134.46                       # Average achieved write bandwidth in MiByte/s
system.mem_ctrls2.avgRdBWSys                   159.32                       # Average system read bandwidth in MiByte/s
system.mem_ctrls2.avgWrBWSys                   134.46                       # Average system write bandwidth in MiByte/s
system.mem_ctrls2.peakBW                     12800.00                       # Theoretical peak bandwidth in MiByte/s
system.mem_ctrls2.busUtil                        2.30                       # Data bus utilization in percentage
system.mem_ctrls2.busUtilRead                    1.24                       # Data bus utilization in percentage for reads
system.mem_ctrls2.busUtilWrite                   1.05                       # Data bus utilization in percentage for writes
system.mem_ctrls2.avgRdQLen                      1.38                       # Average read queue length when enqueuing
system.mem_ctrls2.avgWrQLen                      3.01                       # Average write queue length when enqueuing
system.mem_ctrls2.readRowHits                  291431                       # Number of row buffer hits during reads
system.mem_ctrls2.writeRowHits                 227915                       # Number of row buffer hits during writes
system.mem_ctrls2.readRowHitRate                76.10                       # Row buffer hit rate for reads
system.mem_ctrls2.writeRowHitRate               70.52                       # Row buffer hit rate for writes
system.mem_ctrls2.avgGap                    217844.38                       # Average gap between requests
system.mem_ctrls2.pageHitRate                   73.55                       # Row buffer hit rate, read and write combined
system.mem_ctrls2.memoryStateTime::IDLE   27138922250                       # Time in different power states
system.mem_ctrls2.memoryStateTime::REF     5136820000                       # Time in different power states
system.mem_ctrls2.memoryStateTime::PRE_PDN            0                       # Time in different power states
system.mem_ctrls2.memoryStateTime::ACT   121557794750                       # Time in different power states
system.mem_ctrls2.memoryStateTime::ACT_PDN            0                       # Time in different power states
system.mem_ctrls2.actEnergy::0              711917640                       # Energy for activate commands per rank (pJ)
system.mem_ctrls2.actEnergy::1              700229880                       # Energy for activate commands per rank (pJ)
system.mem_ctrls2.preEnergy::0              388447125                       # Energy for precharge commands per rank (pJ)
system.mem_ctrls2.preEnergy::1              382069875                       # Energy for precharge commands per rank (pJ)
system.mem_ctrls2.readEnergy::0            1500915000                       # Energy for read commands per rank (pJ)
system.mem_ctrls2.readEnergy::1            1485978000                       # Energy for read commands per rank (pJ)
system.mem_ctrls2.writeEnergy::0           1049585040                       # Energy for write commands per rank (pJ)
system.mem_ctrls2.writeEnergy::1           1044770400                       # Energy for write commands per rank (pJ)
system.mem_ctrls2.refreshEnergy::0        10047619920                       # Energy for refresh commands per rank (pJ)
system.mem_ctrls2.refreshEnergy::1        10047619920                       # Energy for refresh commands per rank (pJ)
system.mem_ctrls2.actBackEnergy::0        59673152655                       # Energy for active background per rank (pJ)
system.mem_ctrls2.actBackEnergy::1        59209103115                       # Energy for active background per rank (pJ)
system.mem_ctrls2.preBackEnergy::0        39955056750                       # Energy for precharge background per rank (pJ)
system.mem_ctrls2.preBackEnergy::1        40362117750                       # Energy for precharge background per rank (pJ)
system.mem_ctrls2.totalEnergy::0         113326694130                       # Total energy per rank (pJ)
system.mem_ctrls2.totalEnergy::1         113231888940                       # Total energy per rank (pJ)
system.mem_ctrls2.averagePower::0          736.685481                       # Core power per rank (mW)
system.mem_ctrls2.averagePower::1          736.069195                       # Core power per rank (mW)
system.mem_ctrls3.bytes_read::ruby.dir_cntrl3     24489216                       # Number of bytes read from this memory
system.mem_ctrls3.bytes_read::total          24489216                       # Number of bytes read from this memory
system.mem_ctrls3.bytes_written::ruby.dir_cntrl3     20682816                       # Number of bytes written to this memory
system.mem_ctrls3.bytes_written::total       20682816                       # Number of bytes written to this memory
system.mem_ctrls3.num_reads::ruby.dir_cntrl3       382644                       # Number of read requests responded to by this memory
system.mem_ctrls3.num_reads::total             382644                       # Number of read requests responded to by this memory
system.mem_ctrls3.num_writes::ruby.dir_cntrl3       323169                       # Number of write requests responded to by this memory
system.mem_ctrls3.num_writes::total            323169                       # Number of write requests responded to by this memory
system.mem_ctrls3.bw_read::ruby.dir_cntrl3    159191994                       # Total read bandwidth from this memory (bytes/s)
system.mem_ctrls3.bw_read::total            159191994                       # Total read bandwidth from this memory (bytes/s)
system.mem_ctrls3.bw_write::ruby.dir_cntrl3    134448515                       # Write bandwidth from this memory (bytes/s)
system.mem_ctrls3.bw_write::total           134448515                       # Write bandwidth from this memory (bytes/s)
system.mem_ctrls3.bw_total::ruby.dir_cntrl3    293640509                       # Total bandwidth to/from this memory (bytes/s)
system.mem_ctrls3.bw_total::total           293640509                       # Total bandwidth to/from this memory (bytes/s)
system.mem_ctrls3.readReqs                     382644                       # Number of read requests accepted
system.mem_ctrls3.writeReqs                    323169                       # Number of write requests accepted
system.mem_ctrls3.readBursts                   382644                       # Number of DRAM read bursts, including those serviced by the write queue
system.mem_ctrls3.writeBursts                  323169                       # Number of DRAM write bursts, including those merged in the write queue
system.mem_ctrls3.bytesReadDRAM              24488576                       # Total number of bytes read from DRAM
system.mem_ctrls3.bytesReadWrQ                    640                       # Total number of bytes read from write queue
system.mem_ctrls3.bytesWritten               20682560                       # Total number of bytes written to DRAM
system.mem_ctrls3.bytesReadSys               24489216                       # Total read bytes from the system interface side
system.mem_ctrls3.bytesWrittenSys            20682816                       # Total written bytes from the system interface side
system.mem_ctrls3.servicedByWrQ                    10                       # Number of DRAM read bursts serviced by the write queue
system.mem_ctrls3.mergedWrBursts                    0                       # Number of DRAM write bursts merged with an existing one
system.mem_ctrls3.neitherReadNorWriteReqs            0                       # Number of requests that are neither read nor write
system.mem_ctrls3.perBankRdBursts::0            23629                       # Per bank write bursts
system.mem_ctrls3.perBankRdBursts::1            24296                       # Per bank write bursts
system.mem_ctrls3.perBankRdBursts::2            23812                       # Per bank write bursts
system.mem_ctrls3.perBankRdBursts::3            24239                       # Per bank write bursts
system.mem_ctrls3.perBankRdBursts::4            23815                       # Per bank write bursts
system.mem_ctrls3.perBankRdBursts::5            24164                       # Per bank write bursts
system.mem_ctrls3.perBankRdBursts::6            24223                       # Per bank write bursts
system.mem_ctrls3.perBankRdBursts::7            24032                       # Per bank write bursts
system.mem_ctrls3.perBankRdBursts::8            23882                       # Per bank write bursts
system.mem_ctrls3.perBankRdBursts::9            24025                       # Per bank write bursts
system.mem_ctrls3.perBankRdBursts::10           23880                       # Per bank write bursts
system.mem_ctrls3.perBankRdBursts::11           24276                       # Per bank write bursts
system.mem_ctrls3.perBankRdBursts::12           23558                       # Per bank write bursts
system.mem_ctrls3.perBankRdBursts::13           23445                       # Per bank write bursts
system.mem_ctrls3.perBankRdBursts::14           23607                       # Per bank write bursts
system.mem_ctrls3.perBankRdBursts::15           23751                       # Per bank write bursts
system.mem_ctrls3.perBankWrBursts::0            20229                       # Per bank write bursts
system.mem_ctrls3.perBankWrBursts::1            20134                       # Per bank write bursts
system.mem_ctrls3.perBankWrBursts::2            20164                       # Per bank write bursts
system.mem_ctrls3.perBankWrBursts::3            20425                       # Per bank write bursts
system.mem_ctrls3.perBankWrBursts::4            20046                       # Per bank write bursts
system.mem_ctrls3.perBankWrBursts::5            20336                       # Per bank write bursts
system.mem_ctrls3.perBankWrBursts::6            20354                       # Per bank write bursts
system.mem_ctrls3.perBankWrBursts::7            20261                       # Per bank write bursts
system.mem_ctrls3.perBankWrBursts::8            20376                       # Per bank write bursts
system.mem_ctrls3.perBankWrBursts::9            20194                       # Per bank write bursts
system.mem_ctrls3.perBankWrBursts::10           20096                       # Per bank write bursts
system.mem_ctrls3.perBankWrBursts::11           20163                       # Per bank write bursts
system.mem_ctrls3.perBankWrBursts::12           19929                       # Per bank write bursts
system.mem_ctrls3.perBankWrBursts::13           20187                       # Per bank write bursts
system.mem_ctrls3.perBankWrBursts::14           20155                       # Per bank write bursts
system.mem_ctrls3.perBankWrBursts::15           20116                       # Per bank write bursts
system.mem_ctrls3.numRdRetry                    83838                       # Number of times read queue was full causing retry
system.mem_ctrls3.numWrRetry                    12546                       # Number of times write queue was full causing retry
system.mem_ctrls3.totGap                 153833347000                       # Total gap between requests
system.mem_ctrls3.readPktSize::0                    0                       # Read request sizes (log2)
system.mem_ctrls3.readPktSize::1                    0                       # Read request sizes (log2)
system.mem_ctrls3.readPktSize::2                    0                       # Read request sizes (log2)
system.mem_ctrls3.readPktSize::3                    0                       # Read request sizes (log2)
system.mem_ctrls3.readPktSize::4                    0                       # Read request sizes (log2)
system.mem_ctrls3.readPktSize::5                    0                       # Read request sizes (log2)
system.mem_ctrls3.readPktSize::6               382644                       # Read request sizes (log2)
system.mem_ctrls3.writePktSize::0                   0                       # Write request sizes (log2)
system.mem_ctrls3.writePktSize::1                   0                       # Write request sizes (log2)
system.mem_ctrls3.writePktSize::2                   0                       # Write request sizes (log2)
system.mem_ctrls3.writePktSize::3                   0                       # Write request sizes (log2)
system.mem_ctrls3.writePktSize::4                   0                       # Write request sizes (log2)
system.mem_ctrls3.writePktSize::5                   0                       # Write request sizes (log2)
system.mem_ctrls3.writePktSize::6              323169                       # Write request sizes (log2)
system.mem_ctrls3.rdQLenPdf::0                 200401                       # What read queue length does an incoming req see
system.mem_ctrls3.rdQLenPdf::1                   1498                       # What read queue length does an incoming req see
system.mem_ctrls3.rdQLenPdf::2                   1160                       # What read queue length does an incoming req see
system.mem_ctrls3.rdQLenPdf::3                   1290                       # What read queue length does an incoming req see
system.mem_ctrls3.rdQLenPdf::4                   1546                       # What read queue length does an incoming req see
system.mem_ctrls3.rdQLenPdf::5                   1829                       # What read queue length does an incoming req see
system.mem_ctrls3.rdQLenPdf::6                   1968                       # What read queue length does an incoming req see
system.mem_ctrls3.rdQLenPdf::7                   2060                       # What read queue length does an incoming req see
system.mem_ctrls3.rdQLenPdf::8                   2303                       # What read queue length does an incoming req see
system.mem_ctrls3.rdQLenPdf::9                   2311                       # What read queue length does an incoming req see
system.mem_ctrls3.rdQLenPdf::10                  2485                       # What read queue length does an incoming req see
system.mem_ctrls3.rdQLenPdf::11                  2668                       # What read queue length does an incoming req see
system.mem_ctrls3.rdQLenPdf::12                  2629                       # What read queue length does an incoming req see
system.mem_ctrls3.rdQLenPdf::13                  2654                       # What read queue length does an incoming req see
system.mem_ctrls3.rdQLenPdf::14                  2801                       # What read queue length does an incoming req see
system.mem_ctrls3.rdQLenPdf::15                  2986                       # What read queue length does an incoming req see
system.mem_ctrls3.rdQLenPdf::16                  3085                       # What read queue length does an incoming req see
system.mem_ctrls3.rdQLenPdf::17                  3304                       # What read queue length does an incoming req see
system.mem_ctrls3.rdQLenPdf::18                  3371                       # What read queue length does an incoming req see
system.mem_ctrls3.rdQLenPdf::19                  3512                       # What read queue length does an incoming req see
system.mem_ctrls3.rdQLenPdf::20                  3655                       # What read queue length does an incoming req see
system.mem_ctrls3.rdQLenPdf::21                  3672                       # What read queue length does an incoming req see
system.mem_ctrls3.rdQLenPdf::22                  3710                       # What read queue length does an incoming req see
system.mem_ctrls3.rdQLenPdf::23                  3751                       # What read queue length does an incoming req see
system.mem_ctrls3.rdQLenPdf::24                  3891                       # What read queue length does an incoming req see
[...]
system.ruby.L2Cache_Controller.S_I.Ack_all::total           14                      
system.ruby.L2Cache_Controller.ISS.L1_GETS |           1    100.00%    100.00% |           0      0.00%    100.00% |           0      0.00%    100.00% |           0      0.00%    100.00% |           0      0.00%    100.00% |           0      0.00%    100.00% |           0      0.00%    100.00% |           0      0.00%    100.00% |           0      0.00%    100.00% |           0      0.00%    100.00% |           0      0.00%    100.00% |           0      0.00%    100.00% |           0      0.00%    100.00% |           0      0.00%    100.00% |           0      0.00%    100.00% |           0      0.00%    100.00% |           0      0.00%    100.00% |           0      0.00%    100.00% |           0      0.00%    100.00% |           0      0.00%    100.00% |           0      0.00%    100.00% |           0      0.00%    100.00% |           0      0.00%    100.00% |           0      0.00%    100.00% |           0      0.00%    100.00% |           0      0.00%    100.00% |           0      0.00%    100.00% |           0      0.00%    100.00% |           0      0.00%    100.00% |           0      0.00%    100.00% |           0      0.00%    100.00% |           0      0.00%    100.00%
system.ruby.L2Cache_Controller.ISS.L1_GETS::total            1                      
system.ruby.L2Cache_Controller.ISS.Mem_Data |       18677      7.92%      7.92% |        7079      3.00%     10.93% |        7083      3.01%     13.93% |        7032      2.98%     16.92% |        7001      2.97%     19.89% |        6988      2.96%     22.85% |        6998      2.97%     25.82% |        6993      2.97%     28.79% |        7031      2.98%     31.77% |        7031      2.98%     34.75% |        7063      3.00%     37.75% |        6989      2.97%     40.72% |        6993      2.97%     43.68% |        6993      2.97%     46.65% |        6994      2.97%     49.62% |        6958      2.95%     52.57% |        6997      2.97%     55.54% |        6972      2.96%     58.50% |        7004      2.97%     61.47% |        6983      2.96%     64.43% |        6980      2.96%     67.39% |        6968      2.96%     70.35% |        6992      2.97%     73.31% |        6984      2.96%     76.28% |        7002      2.97%     79.25% |        7004      2.97%     82.22% |        6983      2.96%     85.18% |        6960      2.95%     88.14% |        7005      2.97%     91.11% |        6983      2.96%     94.07% |        6958      2.95%     97.02% |        7016      2.98%    100.00%
system.ruby.L2Cache_Controller.ISS.Mem_Data::total       235694                      
system.ruby.L2Cache_Controller.IS.Mem_Data |         543      3.27%      3.27% |         470      2.83%      6.10% |         464      2.79%      8.89% |         465      2.80%     11.69% |         511      3.08%     14.77% |         466      2.81%     17.57% |         504      3.03%     20.61% |         529      3.18%     23.79% |         547      3.29%     27.08% |         487      2.93%     30.01% |         533      3.21%     33.22% |         566      3.41%     36.63% |         618      3.72%     40.35% |         561      3.38%     43.73% |         579      3.49%     47.21% |         523      3.15%     50.36% |         532      3.20%     53.56% |         569      3.43%     56.99% |         562      3.38%     60.37% |         510      3.07%     63.44% |         503      3.03%     66.47% |         520      3.13%     69.60% |         480      2.89%     72.49% |         468      2.82%     75.31% |         546      3.29%     78.59% |         592      3.56%     82.16% |         532      3.20%     85.36% |         479      2.88%     88.24% |         488      2.94%     91.18% |         510      3.07%     94.25% |         490      2.95%     97.20% |         465      2.80%    100.00%
system.ruby.L2Cache_Controller.IS.Mem_Data::total        16612                      
system.ruby.L2Cache_Controller.IM.L1_GETX |           2    100.00%    100.00% |           0      0.00%    100.00% |           0      0.00%    100.00% |           0      0.00%    100.00% |           0      0.00%    100.00% |           0      0.00%    100.00% |           0      0.00%    100.00% |           0      0.00%    100.00% |           0      0.00%    100.00% |           0      0.00%    100.00% |           0      0.00%    100.00% |           0      0.00%    100.00% |           0      0.00%    100.00% |           0      0.00%    100.00% |           0      0.00%    100.00% |           0      0.00%    100.00% |           0      0.00%    100.00% |           0      0.00%    100.00% |           0      0.00%    100.00% |           0      0.00%    100.00% |           0      0.00%    100.00% |           0      0.00%    100.00% |           0      0.00%    100.00% |           0      0.00%    100.00% |           0      0.00%    100.00% |           0      0.00%    100.00% |           0      0.00%    100.00% |           0      0.00%    100.00% |           0      0.00%    100.00% |           0      0.00%    100.00% |           0      0.00%    100.00% |           0      0.00%    100.00%
system.ruby.L2Cache_Controller.IM.L1_GETX::total            2                      
system.ruby.L2Cache_Controller.IM.Mem_Data |       40411      3.13%      3.13% |       40329      3.12%      6.25% |       40341      3.12%      9.38% |       40347      3.13%     12.50% |       40353      3.13%     15.63% |       40358      3.13%     18.76% |       40339      3.12%     21.88% |       40336      3.12%     25.00% |       40349      3.13%     28.13% |       40344      3.12%     31.25% |       40329      3.12%     34.38% |       40358      3.13%     37.50% |       40339      3.12%     40.63% |       40338      3.12%     43.75% |       40341      3.12%     46.88% |       40330      3.12%     50.00% |       40352      3.13%     53.13% |       40351      3.13%     56.25% |       40349      3.13%     59.38% |       40345      3.12%     62.50% |       40340      3.12%     65.63% |       40354      3.13%     68.75% |       40339      3.12%     71.88% |       40341      3.12%     75.00% |       40347      3.13%     78.13% |       40345      3.12%     81.25% |       40349      3.13%     84.38% |       40336      3.12%     87.50% |       40336      3.12%     90.63% |       40337      3.12%     93.75% |       40349      3.13%     96.88% |       40331      3.12%    100.00%
system.ruby.L2Cache_Controller.IM.Mem_Data::total      1291043                      
system.ruby.L2Cache_Controller.SS_MB.Exclusive_Unblock |           4      8.89%      8.89% |           6     13.33%     22.22% |           2      4.44%     26.67% |           6     13.33%     40.00% |           1      2.22%     42.22% |           0      0.00%     42.22% |           1      2.22%     44.44% |           0      0.00%     44.44% |           0      0.00%     44.44% |           1      2.22%     46.67% |           1      2.22%     48.89% |           0      0.00%     48.89% |           4      8.89%     57.78% |           0      0.00%     57.78% |           3      6.67%     64.44% |           0      0.00%     64.44% |           0      0.00%     64.44% |           0      0.00%     64.44% |           9     20.00%     84.44% |           0      0.00%     84.44% |           0      0.00%     84.44% |           0      0.00%     84.44% |           0      0.00%     84.44% |           0      0.00%     84.44% |           1      2.22%     86.67% |           2      4.44%     91.11% |           1      2.22%     93.33% |           1      2.22%     95.56% |           0      0.00%     95.56% |           1      2.22%     97.78% |           1      2.22%    100.00% |           0      0.00%    100.00%
system.ruby.L2Cache_Controller.SS_MB.Exclusive_Unblock::total           45                      
system.ruby.L2Cache_Controller.MT_MB.L1_PUTX |           2    100.00%    100.00% |           0      0.00%    100.00% |           0      0.00%    100.00% |           0      0.00%    100.00% |           0      0.00%    100.00% |           0      0.00%    100.00% |           0      0.00%    100.00% |           0      0.00%    100.00% |           0      0.00%    100.00% |           0      0.00%    100.00% |           0      0.00%    100.00% |           0      0.00%    100.00% |           0      0.00%    100.00% |           0      0.00%    100.00% |           0      0.00%    100.00% |           0      0.00%    100.00% |           0      0.00%    100.00% |           0      0.00%    100.00% |           0      0.00%    100.00% |           0      0.00%    100.00% |           0      0.00%    100.00% |           0      0.00%    100.00% |           0      0.00%    100.00% |           0      0.00%    100.00% |           0      0.00%    100.00% |           0      0.00%    100.00% |           0      0.00%    100.00% |           0      0.00%    100.00% |           0      0.00%    100.00% |           0      0.00%    100.00% |           0      0.00%    100.00% |           0      0.00%    100.00%
system.ruby.L2Cache_Controller.MT_MB.L1_PUTX::total            2                      
system.ruby.L2Cache_Controller.MT_MB.Exclusive_Unblock |      173281      8.49%      8.49% |       64262      3.15%     11.64% |       58759      2.88%     14.51% |       58461      2.86%     17.38% |       57805      2.83%     20.21% |       56502      2.77%     22.98% |       55008      2.69%     25.67% |       55301      2.71%     28.38% |       59171      2.90%     31.28% |       57718      2.83%     34.11% |       60645      2.97%     37.08% |       60210      2.95%     40.03% |       56860      2.79%     42.81% |       56794      2.78%     45.59% |       56447      2.77%     48.36% |       56867      2.79%     51.14% |       59165      2.90%     54.04% |       58513      2.87%     56.91% |       59885      2.93%     59.84% |       60877      2.98%     62.82% |       60907      2.98%     65.81% |       63097      3.09%     68.90% |       64327      3.15%     72.05% |       60549      2.97%     75.02% |       61108      2.99%     78.01% |       62469      3.06%     81.07% |       60796      2.98%     84.05% |       61416      3.01%     87.06% |       64095      3.14%     90.20% |       61915      3.03%     93.23% |       70029      3.43%     96.66% |       68218      3.34%    100.00%
system.ruby.L2Cache_Controller.MT_MB.Exclusive_Unblock::total      2041457                      
system.ruby.L2Cache_Controller.MT_IIB.WB_Data |           0      0.00%      0.00% |           0      0.00%      0.00% |           0      0.00%      0.00% |           0      0.00%      0.00% |           0      0.00%      0.00% |           1     50.00%     50.00% |           0      0.00%     50.00% |           0      0.00%     50.00% |           0      0.00%     50.00% |           0      0.00%     50.00% |           0      0.00%     50.00% |           0      0.00%     50.00% |           0      0.00%     50.00% |           0      0.00%     50.00% |           0      0.00%     50.00% |           0      0.00%     50.00% |           0      0.00%     50.00% |           0      0.00%     50.00% |           0      0.00%     50.00% |           0      0.00%     50.00% |           0      0.00%     50.00% |           0      0.00%     50.00% |           0      0.00%     50.00% |           0      0.00%     50.00% |           0      0.00%     50.00% |           0      0.00%     50.00% |           0      0.00%     50.00% |           0      0.00%     50.00% |           1     50.00%    100.00% |           0      0.00%    100.00% |           0      0.00%    100.00% |           0      0.00%    100.00%
system.ruby.L2Cache_Controller.MT_IIB.WB_Data::total            2                      
system.ruby.L2Cache_Controller.MT_IIB.WB_Data_clean |          18    100.00%    100.00% |           0      0.00%    100.00% |           0      0.00%    100.00% |           0      0.00%    100.00% |           0      0.00%    100.00% |           0      0.00%    100.00% |           0      0.00%    100.00% |           0      0.00%    100.00% |           0      0.00%    100.00% |           0      0.00%    100.00% |           0      0.00%    100.00% |           0      0.00%    100.00% |           0      0.00%    100.00% |           0      0.00%    100.00% |           0      0.00%    100.00% |           0      0.00%    100.00% |           0      0.00%    100.00% |           0      0.00%    100.00% |           0      0.00%    100.00% |           0      0.00%    100.00% |           0      0.00%    100.00% |           0      0.00%    100.00% |           0      0.00%    100.00% |           0      0.00%    100.00% |           0      0.00%    100.00% |           0      0.00%    100.00% |           0      0.00%    100.00% |           0      0.00%    100.00% |           0      0.00%    100.00% |           0      0.00%    100.00% |           0      0.00%    100.00% |           0      0.00%    100.00%
system.ruby.L2Cache_Controller.MT_IIB.WB_Data_clean::total           18                      
system.ruby.L2Cache_Controller.MT_SB.Unblock |          18     90.00%     90.00% |           0      0.00%     90.00% |           0      0.00%     90.00% |           0      0.00%     90.00% |           0      0.00%     90.00% |           1      5.00%     95.00% |           0      0.00%     95.00% |           0      0.00%     95.00% |           0      0.00%     95.00% |           0      0.00%     95.00% |           0      0.00%     95.00% |           0      0.00%     95.00% |           0      0.00%     95.00% |           0      0.00%     95.00% |           0      0.00%     95.00% |           0      0.00%     95.00% |           0      0.00%     95.00% |           0      0.00%     95.00% |           0      0.00%     95.00% |           0      0.00%     95.00% |           0      0.00%     95.00% |           0      0.00%     95.00% |           0      0.00%     95.00% |           0      0.00%     95.00% |           0      0.00%     95.00% |           0      0.00%     95.00% |           0      0.00%     95.00% |           0      0.00%     95.00% |           1      5.00%    100.00% |           0      0.00%    100.00% |           0      0.00%    100.00% |           0      0.00%    100.00%
system.ruby.L2Cache_Controller.MT_SB.Unblock::total           20                      
system.ruby.SimicsNetworkPortInterface_Controller.MessageSend |      121151     21.40%     21.40% |      283052     50.00%     71.40% |       20090      3.55%     74.95% |       21363      3.77%     78.72% |       20135      3.56%     82.28% |       21132      3.73%     86.01% |       20123      3.55%     89.57% |       21250      3.75%     93.32% |       18479      3.26%     96.59% |       19329      3.41%    100.00% |           0      0.00%    100.00% |           0      0.00%    100.00% |           0      0.00%    100.00% |           0      0.00%    100.00% |           0      0.00%    100.00% |           0      0.00%    100.00% |           0      0.00%    100.00% |           0      0.00%    100.00% |           0      0.00%    100.00% |           0      0.00%    100.00% |           0      0.00%    100.00% |           0      0.00%    100.00% |           0      0.00%    100.00% |           0      0.00%    100.00% |           0      0.00%    100.00% |           0      0.00%    100.00% |           0      0.00%    100.00% |           0      0.00%    100.00% |           0      0.00%    100.00% |           0      0.00%    100.00% |           0      0.00%    100.00% |           0      0.00%    100.00%
system.ruby.SimicsNetworkPortInterface_Controller.MessageSend::total       566104                      
system.ruby.SimicsNetworkPortInterface_Controller.MessageRecv |      121151     21.40%     21.40% |      283052     50.00%     71.40% |       20090      3.55%     74.95% |       21363      3.77%     78.72% |       20135      3.56%     82.28% |       21132      3.73%     86.01% |       20123      3.55%     89.57% |       21250      3.75%     93.32% |       18479      3.26%     96.59% |       19329      3.41%    100.00% |           0      0.00%    100.00% |           0      0.00%    100.00% |           0      0.00%    100.00% |           0      0.00%    100.00% |           0      0.00%    100.00% |           0      0.00%    100.00% |           0      0.00%    100.00% |           0      0.00%    100.00% |           0      0.00%    100.00% |           0      0.00%    100.00% |           0      0.00%    100.00% |           0      0.00%    100.00% |           0      0.00%    100.00% |           0      0.00%    100.00% |           0      0.00%    100.00% |           0      0.00%    100.00% |           0      0.00%    100.00% |           0      0.00%    100.00% |           0      0.00%    100.00% |           0      0.00%    100.00% |           0      0.00%    100.00% |           0      0.00%    100.00%
system.ruby.SimicsNetworkPortInterface_Controller.MessageRecv::total       566104                      
system.ruby.SimicsNetworkPortInterface_Controller.A.MessageSend |      121151     21.40%     21.40% |      283052     50.00%     71.40% |       20090      3.55%     74.95% |       21363      3.77%     78.72% |       20135      3.56%     82.28% |       21132      3.73%     86.01% |       20123      3.55%     89.57% |       21250      3.75%     93.32% |       18479      3.26%     96.59% |       19329      3.41%    100.00% |           0      0.00%    100.00% |           0      0.00%    100.00% |           0      0.00%    100.00% |           0      0.00%    100.00% |           0      0.00%    100.00% |           0      0.00%    100.00% |           0      0.00%    100.00% |           0      0.00%    100.00% |           0      0.00%    100.00% |           0      0.00%    100.00% |           0      0.00%    100.00% |           0      0.00%    100.00% |           0      0.00%    100.00% |           0      0.00%    100.00% |           0      0.00%    100.00% |           0      0.00%    100.00% |           0      0.00%    100.00% |           0      0.00%    100.00% |           0      0.00%    100.00% |           0      0.00%    100.00% |           0      0.00%    100.00% |           0      0.00%    100.00%
system.ruby.SimicsNetworkPortInterface_Controller.A.MessageSend::total       566104                      
system.ruby.SimicsNetworkPortInterface_Controller.A.MessageRecv |      121151     21.40%     21.40% |      283052     50.00%     71.40% |       20090      3.55%     74.95% |       21363      3.77%     78.72% |       20135      3.56%     82.28% |       21132      3.73%     86.01% |       20123      3.55%     89.57% |       21250      3.75%     93.32% |       18479      3.26%     96.59% |       19329      3.41%    100.00% |           0      0.00%    100.00% |           0      0.00%    100.00% |           0      0.00%    100.00% |           0      0.00%    100.00% |           0      0.00%    100.00% |           0      0.00%    100.00% |           0      0.00%    100.00% |           0      0.00%    100.00% |           0      0.00%    100.00% |           0      0.00%    100.00% |           0      0.00%    100.00% |           0      0.00%    100.00% |           0      0.00%    100.00% |           0      0.00%    100.00% |           0      0.00%    100.00% |           0      0.00%    100.00% |           0      0.00%    100.00% |           0      0.00%    100.00% |           0      0.00%    100.00% |           0      0.00%    100.00% |           0      0.00%    100.00% |           0      0.00%    100.00%
system.ruby.SimicsNetworkPortInterface_Controller.A.MessageRecv::total       566104                      
system.switch_cpus.kern.inst.arm                    0                       # number of arm instructions executed
system.switch_cpus.kern.inst.quiesce                0                       # number of quiesce instructions executed

---------- End Simulation Statistics   ----------
