
---------- Begin Simulation Statistics ----------
sim_seconds                                  0.038685                       # Number of seconds simulated
sim_ticks                                 38685121500                       # Number of ticks simulated
final_tick                               5214853200000                       # Number of ticks from beginning of simulation (restored from checkpoints and never reset)
sim_freq                                 1000000000000                       # Frequency of simulated ticks
host_inst_rate                                  49355                       # Simulator instruction rate (inst/s)
host_op_rate                                    87007                       # Simulator op (including micro ops) rate (op/s)
host_tick_rate                              106118869                       # Simulator tick rate (ticks/s)
host_mem_usage                                3228132                       # Number of bytes of host memory used
host_seconds                                   364.55                       # Real time elapsed on the host
sim_insts                                    17992218                       # Number of instructions simulated
sim_ops                                      31718074                       # Number of ops (including micro ops) simulated
system.voltage_domain.voltage                       1                       # Voltage in Volts
system.clk_domain.clock                           500                       # Clock period in ticks
system.mem_ctrls0.bytes_read::ruby.dir_cntrl0      4688768                       # Number of bytes read from this memory
system.mem_ctrls0.bytes_read::total           4688768                       # Number of bytes read from this memory
system.mem_ctrls0.bytes_written::ruby.dir_cntrl0      2862144                       # Number of bytes written to this memory
system.mem_ctrls0.bytes_written::total        2862144                       # Number of bytes written to this memory
system.mem_ctrls0.num_reads::ruby.dir_cntrl0        73262                       # Number of read requests responded to by this memory
system.mem_ctrls0.num_reads::total              73262                       # Number of read requests responded to by this memory
system.mem_ctrls0.num_writes::ruby.dir_cntrl0        44721                       # Number of write requests responded to by this memory
system.mem_ctrls0.num_writes::total             44721                       # Number of write requests responded to by this memory
system.mem_ctrls0.bw_read::ruby.dir_cntrl0    121203393                       # Total read bandwidth from this memory (bytes/s)
system.mem_ctrls0.bw_read::total            121203393                       # Total read bandwidth from this memory (bytes/s)
system.mem_ctrls0.bw_write::ruby.dir_cntrl0     73985654                       # Write bandwidth from this memory (bytes/s)
system.mem_ctrls0.bw_write::total            73985654                       # Write bandwidth from this memory (bytes/s)
system.mem_ctrls0.bw_total::ruby.dir_cntrl0    195189047                       # Total bandwidth to/from this memory (bytes/s)
system.mem_ctrls0.bw_total::total           195189047                       # Total bandwidth to/from this memory (bytes/s)
system.mem_ctrls0.readReqs                      73262                       # Number of read requests accepted
system.mem_ctrls0.writeReqs                     44721                       # Number of write requests accepted
system.mem_ctrls0.readBursts                    73262                       # Number of DRAM read bursts, including those serviced by the write queue
system.mem_ctrls0.writeBursts                   44721                       # Number of DRAM write bursts, including those merged in the write queue
system.mem_ctrls0.bytesReadDRAM               4687936                       # Total number of bytes read from DRAM
system.mem_ctrls0.bytesReadWrQ                    832                       # Total number of bytes read from write queue
system.mem_ctrls0.bytesWritten                2862144                       # Total number of bytes written to DRAM
system.mem_ctrls0.bytesReadSys                4688768                       # Total read bytes from the system interface side
system.mem_ctrls0.bytesWrittenSys             2862144                       # Total written bytes from the system interface side
system.mem_ctrls0.servicedByWrQ                    13                       # Number of DRAM read bursts serviced by the write queue
system.mem_ctrls0.mergedWrBursts                    0                       # Number of DRAM write bursts merged with an existing one
system.mem_ctrls0.neitherReadNorWriteReqs            0                       # Number of requests that are neither read nor write
system.mem_ctrls0.perBankRdBursts::0             4426                       # Per bank write bursts
system.mem_ctrls0.perBankRdBursts::1             4891                       # Per bank write bursts
system.mem_ctrls0.perBankRdBursts::2             4541                       # Per bank write bursts
system.mem_ctrls0.perBankRdBursts::3             4886                       # Per bank write bursts
system.mem_ctrls0.perBankRdBursts::4             4634                       # Per bank write bursts
system.mem_ctrls0.perBankRdBursts::5             4726                       # Per bank write bursts
system.mem_ctrls0.perBankRdBursts::6             4552                       # Per bank write bursts
system.mem_ctrls0.perBankRdBursts::7             4523                       # Per bank write bursts
system.mem_ctrls0.perBankRdBursts::8             4505                       # Per bank write bursts
system.mem_ctrls0.perBankRdBursts::9             4793                       # Per bank write bursts
system.mem_ctrls0.perBankRdBursts::10            4517                       # Per bank write bursts
system.mem_ctrls0.perBankRdBursts::11            4732                       # Per bank write bursts
system.mem_ctrls0.perBankRdBursts::12            4351                       # Per bank write bursts
system.mem_ctrls0.perBankRdBursts::13            4197                       # Per bank write bursts
system.mem_ctrls0.perBankRdBursts::14            4469                       # Per bank write bursts
system.mem_ctrls0.perBankRdBursts::15            4506                       # Per bank write bursts
system.mem_ctrls0.perBankWrBursts::0             2818                       # Per bank write bursts
system.mem_ctrls0.perBankWrBursts::1             2810                       # Per bank write bursts
system.mem_ctrls0.perBankWrBursts::2             2793                       # Per bank write bursts
system.mem_ctrls0.perBankWrBursts::3             2882                       # Per bank write bursts
system.mem_ctrls0.perBankWrBursts::4             2801                       # Per bank write bursts
system.mem_ctrls0.perBankWrBursts::5             2939                       # Per bank write bursts
system.mem_ctrls0.perBankWrBursts::6             2769                       # Per bank write bursts
system.mem_ctrls0.perBankWrBursts::7             2846                       # Per bank write bursts
system.mem_ctrls0.perBankWrBursts::8             2740                       # Per bank write bursts
system.mem_ctrls0.perBankWrBursts::9             2919                       # Per bank write bursts
system.mem_ctrls0.perBankWrBursts::10            2766                       # Per bank write bursts
system.mem_ctrls0.perBankWrBursts::11            2698                       # Per bank write bursts
system.mem_ctrls0.perBankWrBursts::12            2633                       # Per bank write bursts
system.mem_ctrls0.perBankWrBursts::13            2670                       # Per bank write bursts
system.mem_ctrls0.perBankWrBursts::14            2876                       # Per bank write bursts
system.mem_ctrls0.perBankWrBursts::15            2761                       # Per bank write bursts
system.mem_ctrls0.numRdRetry                     5400                       # Number of times read queue was full causing retry
system.mem_ctrls0.numWrRetry                     2678                       # Number of times write queue was full causing retry
system.mem_ctrls0.totGap                  38684609000                       # Total gap between requests
system.mem_ctrls0.readPktSize::0                    0                       # Read request sizes (log2)
system.mem_ctrls0.readPktSize::1                    0                       # Read request sizes (log2)
system.mem_ctrls0.readPktSize::2                    0                       # Read request sizes (log2)
system.mem_ctrls0.readPktSize::3                    0                       # Read request sizes (log2)
system.mem_ctrls0.readPktSize::4                    0                       # Read request sizes (log2)
system.mem_ctrls0.readPktSize::5                    0                       # Read request sizes (log2)
system.mem_ctrls0.readPktSize::6                73262                       # Read request sizes (log2)
system.mem_ctrls0.writePktSize::0                   0                       # Write request sizes (log2)
system.mem_ctrls0.writePktSize::1                   0                       # Write request sizes (log2)
system.mem_ctrls0.writePktSize::2                   0                       # Write request sizes (log2)
system.mem_ctrls0.writePktSize::3                   0                       # Write request sizes (log2)
system.mem_ctrls0.writePktSize::4                   0                       # Write request sizes (log2)
system.mem_ctrls0.writePktSize::5                   0                       # Write request sizes (log2)
system.mem_ctrls0.writePktSize::6               44721                       # Write request sizes (log2)
system.mem_ctrls0.rdQLenPdf::0                  43656                       # What read queue length does an incoming req see
system.mem_ctrls0.rdQLenPdf::1                   1962                       # What read queue length does an incoming req see
system.mem_ctrls0.rdQLenPdf::2                   1483                       # What read queue length does an incoming req see
system.mem_ctrls0.rdQLenPdf::3                   1199                       # What read queue length does an incoming req see
system.mem_ctrls0.rdQLenPdf::4                   1184                       # What read queue length does an incoming req see
system.mem_ctrls0.rdQLenPdf::5                   1212                       # What read queue length does an incoming req see
system.mem_ctrls0.rdQLenPdf::6                   1153                       # What read queue length does an incoming req see
system.mem_ctrls0.rdQLenPdf::7                   1156                       # What read queue length does an incoming req see
system.mem_ctrls0.rdQLenPdf::8                   1064                       # What read queue length does an incoming req see
system.mem_ctrls0.rdQLenPdf::9                   1059                       # What read queue length does an incoming req see
system.mem_ctrls0.rdQLenPdf::10                   975                       # What read queue length does an incoming req see
system.mem_ctrls0.rdQLenPdf::11                   877                       # What read queue length does an incoming req see
system.mem_ctrls0.rdQLenPdf::12                   875                       # What read queue length does an incoming req see
system.mem_ctrls0.rdQLenPdf::13                   867                       # What read queue length does an incoming req see
system.mem_ctrls0.rdQLenPdf::14                   771                       # What read queue length does an incoming req see
system.mem_ctrls0.rdQLenPdf::15                   736                       # What read queue length does an incoming req see
system.mem_ctrls0.rdQLenPdf::16                   664                       # What read queue length does an incoming req see
system.mem_ctrls0.rdQLenPdf::17                   625                       # What read queue length does an incoming req see
system.mem_ctrls0.rdQLenPdf::18                   543                       # What read queue length does an incoming req see
system.mem_ctrls0.rdQLenPdf::19                   497                       # What read queue length does an incoming req see
system.mem_ctrls0.rdQLenPdf::20                   482                       # What read queue length does an incoming req see
system.mem_ctrls0.rdQLenPdf::21                   458                       # What read queue length does an incoming req see
system.mem_ctrls0.rdQLenPdf::22                   463                       # What read queue length does an incoming req see
system.mem_ctrls0.rdQLenPdf::23                   428                       # What read queue length does an incoming req see
system.mem_ctrls0.rdQLenPdf::24                   380                       # What read queue length does an incoming req see
system.mem_ctrls0.rdQLenPdf::25                   386                       # What read queue length does an incoming req see
system.mem_ctrls0.rdQLenPdf::26                   378                       # What read queue length does an incoming req see
system.mem_ctrls0.rdQLenPdf::27                   377                       # What read queue length does an incoming req see
system.mem_ctrls0.rdQLenPdf::28                   395                       # What read queue length does an incoming req see
system.mem_ctrls0.rdQLenPdf::29                   436                       # What read queue length does an incoming req see
system.mem_ctrls0.rdQLenPdf::30                   497                       # What read queue length does an incoming req see
system.mem_ctrls0.rdQLenPdf::31                  6011                       # What read queue length does an incoming req see
system.mem_ctrls0.wrQLenPdf::0                   7516                       # What write queue length does an incoming req see
system.mem_ctrls0.wrQLenPdf::1                   7750                       # What write queue length does an incoming req see
system.mem_ctrls0.wrQLenPdf::2                   7834                       # What write queue length does an incoming req see
system.mem_ctrls0.wrQLenPdf::3                   7868                       # What write queue length does an incoming req see
system.mem_ctrls0.wrQLenPdf::4                   7994                       # What write queue length does an incoming req see
system.mem_ctrls0.wrQLenPdf::5                    980                       # What write queue length does an incoming req see
system.mem_ctrls0.wrQLenPdf::6                   1066                       # What write queue length does an incoming req see
system.mem_ctrls0.wrQLenPdf::7                   3713                       # What write queue length does an incoming req see
system.mem_ctrls0.bytesPerActivate::samples        32418                       # Bytes accessed per row activation
system.mem_ctrls0.bytesPerActivate::mean   232.868160                       # Bytes accessed per row activation
system.mem_ctrls0.bytesPerActivate::gmean   156.854139                       # Bytes accessed per row activation
system.mem_ctrls0.bytesPerActivate::stdev   233.695877                       # Bytes accessed per row activation
system.mem_ctrls0.bytesPerActivate::0-127        12703     39.19%     39.19% # Bytes accessed per row activation
system.mem_ctrls0.bytesPerActivate::128-255         7248     22.36%     61.54% # Bytes accessed per row activation
system.mem_ctrls0.bytesPerActivate::256-383         7899     24.37%     85.91% # Bytes accessed per row activation
system.mem_ctrls0.bytesPerActivate::384-511         1041      3.21%     89.12% # Bytes accessed per row activation
system.mem_ctrls0.bytesPerActivate::512-639          816      2.52%     91.64% # Bytes accessed per row activation
system.mem_ctrls0.bytesPerActivate::640-767          634      1.96%     93.59% # Bytes accessed per row activation
system.mem_ctrls0.bytesPerActivate::768-895          491      1.51%     95.11% # Bytes accessed per row activation
system.mem_ctrls0.bytesPerActivate::896-1023          514      1.59%     96.69% # Bytes accessed per row activation
system.mem_ctrls0.bytesPerActivate::1024-1151         1072      3.31%    100.00% # Bytes accessed per row activation
system.mem_ctrls0.bytesPerActivate::total        32418                       # Bytes accessed per row activation
system.mem_ctrls0.rdPerTurnAround::samples         7768                       # Reads before turning the bus around for writes
system.mem_ctrls0.rdPerTurnAround::mean      9.428038                       # Reads before turning the bus around for writes
system.mem_ctrls0.rdPerTurnAround::stdev    46.824810                       # Reads before turning the bus around for writes
system.mem_ctrls0.rdPerTurnAround::0-127         7761     99.91%     99.91% # Reads before turning the bus around for writes
system.mem_ctrls0.rdPerTurnAround::128-255            6      0.08%     99.99% # Reads before turning the bus around for writes
system.mem_ctrls0.rdPerTurnAround::3968-4095            1      0.01%    100.00% # Reads before turning the bus around for writes
system.mem_ctrls0.rdPerTurnAround::total         7768                       # Reads before turning the bus around for writes
system.mem_ctrls0.wrPerTurnAround::samples         7768                       # Writes before turning the bus around for reads
system.mem_ctrls0.wrPerTurnAround::mean      5.757080                       # Writes before turning the bus around for reads
system.mem_ctrls0.wrPerTurnAround::gmean     5.471591                       # Writes before turning the bus around for reads
system.mem_ctrls0.wrPerTurnAround::stdev     2.472421                       # Writes before turning the bus around for reads
system.mem_ctrls0.wrPerTurnAround::4-7           7133     91.83%     91.83% # Writes before turning the bus around for reads
system.mem_ctrls0.wrPerTurnAround::8-11           188      2.42%     94.25% # Writes before turning the bus around for reads
system.mem_ctrls0.wrPerTurnAround::12-15          142      1.83%     96.07% # Writes before turning the bus around for reads
system.mem_ctrls0.wrPerTurnAround::16-19          305      3.93%    100.00% # Writes before turning the bus around for reads
system.mem_ctrls0.wrPerTurnAround::total         7768                       # Writes before turning the bus around for reads
system.mem_ctrls0.totQLat                  5351483475                       # Total ticks spent queuing
system.mem_ctrls0.totMemAccLat             6724902225                       # Total ticks spent from burst creation until serviced by the DRAM
system.mem_ctrls0.totBusLat                 366245000                       # Total ticks spent in databus transfers
system.mem_ctrls0.avgQLat                    73058.79                       # Average queueing delay per DRAM burst
system.mem_ctrls0.avgBusLat                   5000.00                       # Average bus latency per DRAM burst
system.mem_ctrls0.avgMemAccLat               91808.79                       # Average memory access latency per DRAM burst
system.mem_ctrls0.avgRdBW                      121.18                       # Average DRAM read bandwidth in MiByte/s
system.mem_ctrls0.avgWrBW                       73.99                       # Average achieved write bandwidth in MiByte/s
system.mem_ctrls0.avgRdBWSys                   121.20                       # Average system read bandwidth in MiByte/s
system.mem_ctrls0.avgWrBWSys                    73.99                       # Average system write bandwidth in MiByte/s
system.mem_ctrls0.peakBW                     12800.00                       # Theoretical peak bandwidth in MiByte/s
system.mem_ctrls0.busUtil                        1.52                       # Data bus utilization in percentage
system.mem_ctrls0.busUtilRead                    0.95                       # Data bus utilization in percentage for reads
system.mem_ctrls0.busUtilWrite                   0.58                       # Data bus utilization in percentage for writes
system.mem_ctrls0.avgRdQLen                      1.16                       # Average read queue length when enqueuing
system.mem_ctrls0.avgWrQLen                      2.87                       # Average write queue length when enqueuing
system.mem_ctrls0.readRowHits                   56326                       # Number of row buffer hits during reads
system.mem_ctrls0.writeRowHits                  29217                       # Number of row buffer hits during writes
system.mem_ctrls0.readRowHitRate                76.90                       # Row buffer hit rate for reads
system.mem_ctrls0.writeRowHitRate               65.33                       # Row buffer hit rate for writes
system.mem_ctrls0.avgGap                    327882.91                       # Average gap between requests
system.mem_ctrls0.pageHitRate                   72.51                       # Row buffer hit rate, read and write combined
system.mem_ctrls0.memoryStateTime::IDLE   10429338000                       # Time in different power states
system.mem_ctrls0.memoryStateTime::REF     1291680000                       # Time in different power states
system.mem_ctrls0.memoryStateTime::PRE_PDN            0                       # Time in different power states
system.mem_ctrls0.memoryStateTime::ACT    26961345750                       # Time in different power states
system.mem_ctrls0.memoryStateTime::ACT_PDN            0                       # Time in different power states
system.mem_ctrls0.actEnergy::0              126735840                       # Energy for activate commands per rank (pJ)
system.mem_ctrls0.actEnergy::1              118283760                       # Energy for activate commands per rank (pJ)
system.mem_ctrls0.preEnergy::0               69151500                       # Energy for precharge commands per rank (pJ)
system.mem_ctrls0.preEnergy::1               64539750                       # Energy for precharge commands per rank (pJ)
system.mem_ctrls0.readEnergy::0             289933800                       # Energy for read commands per rank (pJ)
system.mem_ctrls0.readEnergy::1             281268000                       # Energy for read commands per rank (pJ)
system.mem_ctrls0.writeEnergy::0            146810880                       # Energy for write commands per rank (pJ)
system.mem_ctrls0.writeEnergy::1            142948800                       # Energy for write commands per rank (pJ)
system.mem_ctrls0.refreshEnergy::0         2526526080                       # Energy for refresh commands per rank (pJ)
system.mem_ctrls0.refreshEnergy::1         2526526080                       # Energy for refresh commands per rank (pJ)
system.mem_ctrls0.actBackEnergy::0        14088872970                       # Energy for active background per rank (pJ)
system.mem_ctrls0.actBackEnergy::1        13732821045                       # Energy for active background per rank (pJ)
system.mem_ctrls0.preBackEnergy::0        10850749500                       # Energy for precharge background per rank (pJ)
system.mem_ctrls0.preBackEnergy::1        11163075750                       # Energy for precharge background per rank (pJ)
system.mem_ctrls0.totalEnergy::0          28098780570                       # Total energy per rank (pJ)
system.mem_ctrls0.totalEnergy::1          28029463185                       # Total energy per rank (pJ)
system.mem_ctrls0.averagePower::0          726.397971                       # Core power per rank (mW)
system.mem_ctrls0.averagePower::1          724.606007                       # Core power per rank (mW)
system.mem_ctrls1.bytes_read::ruby.dir_cntrl1      4564352                       # Number of bytes read from this memory
system.mem_ctrls1.bytes_read::total           4564352                       # Number of bytes read from this memory
system.mem_ctrls1.bytes_written::ruby.dir_cntrl1      2746624                       # Number of bytes written to this memory
system.mem_ctrls1.bytes_written::total        2746624                       # Number of bytes written to this memory
system.mem_ctrls1.num_reads::ruby.dir_cntrl1        71318                       # Number of read requests responded to by this memory
system.mem_ctrls1.num_reads::total              71318                       # Number of read requests responded to by this memory
system.mem_ctrls1.num_writes::ruby.dir_cntrl1        42916                       # Number of write requests responded to by this memory
system.mem_ctrls1.num_writes::total             42916                       # Number of write requests responded to by this memory
system.mem_ctrls1.bw_read::ruby.dir_cntrl1    117987273                       # Total read bandwidth from this memory (bytes/s)
system.mem_ctrls1.bw_read::total            117987273                       # Total read bandwidth from this memory (bytes/s)
system.mem_ctrls1.bw_write::ruby.dir_cntrl1     70999493                       # Write bandwidth from this memory (bytes/s)
system.mem_ctrls1.bw_write::total            70999493                       # Write bandwidth from this memory (bytes/s)
system.mem_ctrls1.bw_total::ruby.dir_cntrl1    188986766                       # Total bandwidth to/from this memory (bytes/s)
system.mem_ctrls1.bw_total::total           188986766                       # Total bandwidth to/from this memory (bytes/s)
system.mem_ctrls1.readReqs                      71318                       # Number of read requests accepted
system.mem_ctrls1.writeReqs                     42916                       # Number of write requests accepted
system.mem_ctrls1.readBursts                    71318                       # Number of DRAM read bursts, including those serviced by the write queue
system.mem_ctrls1.writeBursts                   42916                       # Number of DRAM write bursts, including those merged in the write queue
system.mem_ctrls1.bytesReadDRAM               4563264                       # Total number of bytes read from DRAM
system.mem_ctrls1.bytesReadWrQ                   1088                       # Total number of bytes read from write queue
system.mem_ctrls1.bytesWritten                2746560                       # Total number of bytes written to DRAM
system.mem_ctrls1.bytesReadSys                4564352                       # Total read bytes from the system interface side
system.mem_ctrls1.bytesWrittenSys             2746624                       # Total written bytes from the system interface side
system.mem_ctrls1.servicedByWrQ                    17                       # Number of DRAM read bursts serviced by the write queue
system.mem_ctrls1.mergedWrBursts                    0                       # Number of DRAM write bursts merged with an existing one
system.mem_ctrls1.neitherReadNorWriteReqs            0                       # Number of requests that are neither read nor write
system.mem_ctrls1.perBankRdBursts::0             4309                       # Per bank write bursts
system.mem_ctrls1.perBankRdBursts::1             4752                       # Per bank write bursts
system.mem_ctrls1.perBankRdBursts::2             4420                       # Per bank write bursts
system.mem_ctrls1.perBankRdBursts::3             4767                       # Per bank write bursts
system.mem_ctrls1.perBankRdBursts::4             4524                       # Per bank write bursts
system.mem_ctrls1.perBankRdBursts::5             4631                       # Per bank write bursts
system.mem_ctrls1.perBankRdBursts::6             4426                       # Per bank write bursts
system.mem_ctrls1.perBankRdBursts::7             4428                       # Per bank write bursts
system.mem_ctrls1.perBankRdBursts::8             4374                       # Per bank write bursts
system.mem_ctrls1.perBankRdBursts::9             4671                       # Per bank write bursts
system.mem_ctrls1.perBankRdBursts::10            4400                       # Per bank write bursts
system.mem_ctrls1.perBankRdBursts::11            4614                       # Per bank write bursts
system.mem_ctrls1.perBankRdBursts::12            4228                       # Per bank write bursts
system.mem_ctrls1.perBankRdBursts::13            4084                       # Per bank write bursts
system.mem_ctrls1.perBankRdBursts::14            4274                       # Per bank write bursts
system.mem_ctrls1.perBankRdBursts::15            4399                       # Per bank write bursts
system.mem_ctrls1.perBankWrBursts::0             2710                       # Per bank write bursts
system.mem_ctrls1.perBankWrBursts::1             2714                       # Per bank write bursts
system.mem_ctrls1.perBankWrBursts::2             2691                       # Per bank write bursts
system.mem_ctrls1.perBankWrBursts::3             2773                       # Per bank write bursts
system.mem_ctrls1.perBankWrBursts::4             2699                       # Per bank write bursts
system.mem_ctrls1.perBankWrBursts::5             2832                       # Per bank write bursts
system.mem_ctrls1.perBankWrBursts::6             2643                       # Per bank write bursts
system.mem_ctrls1.perBankWrBursts::7             2732                       # Per bank write bursts
system.mem_ctrls1.perBankWrBursts::8             2629                       # Per bank write bursts
system.mem_ctrls1.perBankWrBursts::9             2805                       # Per bank write bursts
system.mem_ctrls1.perBankWrBursts::10            2661                       # Per bank write bursts
system.mem_ctrls1.perBankWrBursts::11            2586                       # Per bank write bursts
system.mem_ctrls1.perBankWrBursts::12            2527                       # Per bank write bursts
system.mem_ctrls1.perBankWrBursts::13            2553                       # Per bank write bursts
system.mem_ctrls1.perBankWrBursts::14            2708                       # Per bank write bursts
system.mem_ctrls1.perBankWrBursts::15            2652                       # Per bank write bursts
system.mem_ctrls1.numRdRetry                     2838                       # Number of times read queue was full causing retry
system.mem_ctrls1.numWrRetry                     2415                       # Number of times write queue was full causing retry
system.mem_ctrls1.totGap                  38684357000                       # Total gap between requests
system.mem_ctrls1.readPktSize::0                    0                       # Read request sizes (log2)
system.mem_ctrls1.readPktSize::1                    0                       # Read request sizes (log2)
system.mem_ctrls1.readPktSize::2                    0                       # Read request sizes (log2)
system.mem_ctrls1.readPktSize::3                    0                       # Read request sizes (log2)
system.mem_ctrls1.readPktSize::4                    0                       # Read request sizes (log2)
system.mem_ctrls1.readPktSize::5                    0                       # Read request sizes (log2)
system.mem_ctrls1.readPktSize::6                71318                       # Read request sizes (log2)
system.mem_ctrls1.writePktSize::0                   0                       # Write request sizes (log2)
system.mem_ctrls1.writePktSize::1                   0                       # Write request sizes (log2)
system.mem_ctrls1.writePktSize::2                   0                       # Write request sizes (log2)
system.mem_ctrls1.writePktSize::3                   0                       # Write request sizes (log2)
system.mem_ctrls1.writePktSize::4                   0                       # Write request sizes (log2)
system.mem_ctrls1.writePktSize::5                   0                       # Write request sizes (log2)
system.mem_ctrls1.writePktSize::6               42916                       # Write request sizes (log2)
system.mem_ctrls1.rdQLenPdf::0                  42790                       # What read queue length does an incoming req see
system.mem_ctrls1.rdQLenPdf::1                   1358                       # What read queue length does an incoming req see
system.mem_ctrls1.rdQLenPdf::2                   1243                       # What read queue length does an incoming req see
system.mem_ctrls1.rdQLenPdf::3                   1407                       # What read queue length does an incoming req see
system.mem_ctrls1.rdQLenPdf::4                   1428                       # What read queue length does an incoming req see
system.mem_ctrls1.rdQLenPdf::5                   1345                       # What read queue length does an incoming req see
system.mem_ctrls1.rdQLenPdf::6                   1262                       # What read queue length does an incoming req see
system.mem_ctrls1.rdQLenPdf::7                   1227                       # What read queue length does an incoming req see
system.mem_ctrls1.rdQLenPdf::8                   1186                       # What read queue length does an incoming req see
system.mem_ctrls1.rdQLenPdf::9                   1133                       # What read queue length does an incoming req see
system.mem_ctrls1.rdQLenPdf::10                  1121                       # What read queue length does an incoming req see
system.mem_ctrls1.rdQLenPdf::11                  1062                       # What read queue length does an incoming req see
system.mem_ctrls1.rdQLenPdf::12                  1049                       # What read queue length does an incoming req see
system.mem_ctrls1.rdQLenPdf::13                   994                       # What read queue length does an incoming req see
system.mem_ctrls1.rdQLenPdf::14                   952                       # What read queue length does an incoming req see
system.mem_ctrls1.rdQLenPdf::15                   838                       # What read queue length does an incoming req see
system.mem_ctrls1.rdQLenPdf::16                   771                       # What read queue length does an incoming req see
system.mem_ctrls1.rdQLenPdf::17                   722                       # What read queue length does an incoming req see
system.mem_ctrls1.rdQLenPdf::18                   661                       # What read queue length does an incoming req see
system.mem_ctrls1.rdQLenPdf::19                   581                       # What read queue length does an incoming req see
system.mem_ctrls1.rdQLenPdf::20                   541                       # What read queue length does an incoming req see
system.mem_ctrls1.rdQLenPdf::21                   492                       # What read queue length does an incoming req see
system.mem_ctrls1.rdQLenPdf::22                   433                       # What read queue length does an incoming req see
system.mem_ctrls1.rdQLenPdf::23                   414                       # What read queue length does an incoming req see
system.mem_ctrls1.rdQLenPdf::24                   446                       # What read queue length does an incoming req see
system.mem_ctrls1.rdQLenPdf::25                   417                       # What read queue length does an incoming req see
system.mem_ctrls1.rdQLenPdf::26                   416                       # What read queue length does an incoming req see
system.mem_ctrls1.rdQLenPdf::27                   453                       # What read queue length does an incoming req see
system.mem_ctrls1.rdQLenPdf::28                   398                       # What read queue length does an incoming req see
system.mem_ctrls1.rdQLenPdf::29                   414                       # What read queue length does an incoming req see
system.mem_ctrls1.rdQLenPdf::30                   432                       # What read queue length does an incoming req see
system.mem_ctrls1.rdQLenPdf::31                  3315                       # What read queue length does an incoming req see
system.mem_ctrls1.wrQLenPdf::0                   7248                       # What write queue length does an incoming req see
system.mem_ctrls1.wrQLenPdf::1                   7452                       # What write queue length does an incoming req see
system.mem_ctrls1.wrQLenPdf::2                   7561                       # What write queue length does an incoming req see
system.mem_ctrls1.wrQLenPdf::3                   7644                       # What write queue length does an incoming req see
system.mem_ctrls1.wrQLenPdf::4                   7743                       # What write queue length does an incoming req see
system.mem_ctrls1.wrQLenPdf::5                    970                       # What write queue length does an incoming req see
system.mem_ctrls1.wrQLenPdf::6                   1015                       # What write queue length does an incoming req see
system.mem_ctrls1.wrQLenPdf::7                   3283                       # What write queue length does an incoming req see
system.mem_ctrls1.bytesPerActivate::samples        28653                       # Bytes accessed per row activation
system.mem_ctrls1.bytesPerActivate::mean   255.088682                       # Bytes accessed per row activation
system.mem_ctrls1.bytesPerActivate::gmean   175.593263                       # Bytes accessed per row activation
system.mem_ctrls1.bytesPerActivate::stdev   238.280574                       # Bytes accessed per row activation
system.mem_ctrls1.bytesPerActivate::0-127         9379     32.73%     32.73% # Bytes accessed per row activation
system.mem_ctrls1.bytesPerActivate::128-255         6564     22.91%     55.64% # Bytes accessed per row activation
system.mem_ctrls1.bytesPerActivate::256-383         7923     27.65%     83.29% # Bytes accessed per row activation
system.mem_ctrls1.bytesPerActivate::384-511         1192      4.16%     87.45% # Bytes accessed per row activation
system.mem_ctrls1.bytesPerActivate::512-639          918      3.20%     90.66% # Bytes accessed per row activation
system.mem_ctrls1.bytesPerActivate::640-767          633      2.21%     92.87% # Bytes accessed per row activation
system.mem_ctrls1.bytesPerActivate::768-895          570      1.99%     94.86% # Bytes accessed per row activation
system.mem_ctrls1.bytesPerActivate::896-1023          521      1.82%     96.67% # Bytes accessed per row activation
system.mem_ctrls1.bytesPerActivate::1024-1151          953      3.33%    100.00% # Bytes accessed per row activation
system.mem_ctrls1.bytesPerActivate::total        28653                       # Bytes accessed per row activation
system.mem_ctrls1.rdPerTurnAround::samples         7486                       # Reads before turning the bus around for writes
system.mem_ctrls1.rdPerTurnAround::mean      9.521908                       # Reads before turning the bus around for writes
system.mem_ctrls1.rdPerTurnAround::stdev    38.048778                       # Reads before turning the bus around for writes
system.mem_ctrls1.rdPerTurnAround::0-127         7478     99.89%     99.89% # Reads before turning the bus around for writes
system.mem_ctrls1.rdPerTurnAround::128-255            6      0.08%     99.97% # Reads before turning the bus around for writes
system.mem_ctrls1.rdPerTurnAround::1152-1279            1      0.01%     99.99% # Reads before turning the bus around for writes
system.mem_ctrls1.rdPerTurnAround::2816-2943            1      0.01%    100.00% # Reads before turning the bus around for writes
system.mem_ctrls1.rdPerTurnAround::total         7486                       # Reads before turning the bus around for writes
system.mem_ctrls1.wrPerTurnAround::samples         7486                       # Writes before turning the bus around for reads
system.mem_ctrls1.wrPerTurnAround::mean      5.732701                       # Writes before turning the bus around for reads
system.mem_ctrls1.wrPerTurnAround::gmean     5.457947                       # Writes before turning the bus around for reads
system.mem_ctrls1.wrPerTurnAround::stdev     2.418647                       # Writes before turning the bus around for reads
system.mem_ctrls1.wrPerTurnAround::4-7           6855     91.57%     91.57% # Writes before turning the bus around for reads
system.mem_ctrls1.wrPerTurnAround::8-11           220      2.94%     94.51% # Writes before turning the bus around for reads
system.mem_ctrls1.wrPerTurnAround::12-15          131      1.75%     96.26% # Writes before turning the bus around for reads
system.mem_ctrls1.wrPerTurnAround::16-19          280      3.74%    100.00% # Writes before turning the bus around for reads
system.mem_ctrls1.wrPerTurnAround::total         7486                       # Writes before turning the bus around for reads
system.mem_ctrls1.totQLat                  4565815833                       # Total ticks spent queuing
system.mem_ctrls1.totMemAccLat             5902709583                       # Total ticks spent from burst creation until serviced by the DRAM
system.mem_ctrls1.totBusLat                 356505000                       # Total ticks spent in databus transfers
system.mem_ctrls1.avgQLat                    64035.79                       # Average queueing delay per DRAM burst
system.mem_ctrls1.avgBusLat                   5000.00                       # Average bus latency per DRAM burst
system.mem_ctrls1.avgMemAccLat               82785.79                       # Average memory access latency per DRAM burst
system.mem_ctrls1.avgRdBW                      117.96                       # Average DRAM read bandwidth in MiByte/s
system.mem_ctrls1.avgWrBW                       71.00                       # Average achieved write bandwidth in MiByte/s
system.mem_ctrls1.avgRdBWSys                   117.99                       # Average system read bandwidth in MiByte/s
system.mem_ctrls1.avgWrBWSys                    71.00                       # Average system write bandwidth in MiByte/s
system.mem_ctrls1.peakBW                     12800.00                       # Theoretical peak bandwidth in MiByte/s
system.mem_ctrls1.busUtil                        1.48                       # Data bus utilization in percentage
system.mem_ctrls1.busUtilRead                    0.92                       # Data bus utilization in percentage for reads
system.mem_ctrls1.busUtilWrite                   0.55                       # Data bus utilization in percentage for writes
system.mem_ctrls1.avgRdQLen                      1.14                       # Average read queue length when enqueuing
system.mem_ctrls1.avgWrQLen                      2.86                       # Average write queue length when enqueuing
system.mem_ctrls1.readRowHits                   55890                       # Number of row buffer hits during reads
system.mem_ctrls1.writeRowHits                  29669                       # Number of row buffer hits during writes
system.mem_ctrls1.readRowHitRate                78.39                       # Row buffer hit rate for reads
system.mem_ctrls1.writeRowHitRate               69.13                       # Row buffer hit rate for writes
system.mem_ctrls1.avgGap                    338641.36                       # Average gap between requests
system.mem_ctrls1.pageHitRate                   74.91                       # Row buffer hit rate, read and write combined
system.mem_ctrls1.memoryStateTime::IDLE   10617879750                       # Time in different power states
system.mem_ctrls1.memoryStateTime::REF     1291680000                       # Time in different power states
system.mem_ctrls1.memoryStateTime::PRE_PDN            0                       # Time in different power states
system.mem_ctrls1.memoryStateTime::ACT    26772995750                       # Time in different power states
system.mem_ctrls1.memoryStateTime::ACT_PDN            0                       # Time in different power states
system.mem_ctrls1.actEnergy::0              112833000                       # Energy for activate commands per rank (pJ)
system.mem_ctrls1.actEnergy::1              103776120                       # Energy for activate commands per rank (pJ)
system.mem_ctrls1.preEnergy::0               61565625                       # Energy for precharge commands per rank (pJ)
system.mem_ctrls1.preEnergy::1               56623875                       # Energy for precharge commands per rank (pJ)
system.mem_ctrls1.readEnergy::0             282765600                       # Energy for read commands per rank (pJ)
system.mem_ctrls1.readEnergy::1             273273000                       # Energy for read commands per rank (pJ)
system.mem_ctrls1.writeEnergy::0            141225120                       # Energy for write commands per rank (pJ)
system.mem_ctrls1.writeEnergy::1            136864080                       # Energy for write commands per rank (pJ)
system.mem_ctrls1.refreshEnergy::0         2526526080                       # Energy for refresh commands per rank (pJ)
system.mem_ctrls1.refreshEnergy::1         2526526080                       # Energy for refresh commands per rank (pJ)
system.mem_ctrls1.actBackEnergy::0        13958606880                       # Energy for active background per rank (pJ)
system.mem_ctrls1.actBackEnergy::1        13297786785                       # Energy for active background per rank (pJ)
system.mem_ctrls1.preBackEnergy::0        10965018000                       # Energy for precharge background per rank (pJ)
system.mem_ctrls1.preBackEnergy::1        11544684750                       # Energy for precharge background per rank (pJ)
system.mem_ctrls1.totalEnergy::0          28048540305                       # Total energy per rank (pJ)
system.mem_ctrls1.totalEnergy::1          27939534690                       # Total energy per rank (pJ)
system.mem_ctrls1.averagePower::0          725.099181                       # Core power per rank (mW)
system.mem_ctrls1.averagePower::1          722.281213                       # Core power per rank (mW)
system.mem_ctrls2.bytes_read::ruby.dir_cntrl2      4566720                       # Number of bytes read from this memory
system.mem_ctrls2.bytes_read::total           4566720                       # Number of bytes read from this memory
system.mem_ctrls2.bytes_written::ruby.dir_cntrl2      2748160                       # Number of bytes written to this memory
system.mem_ctrls2.bytes_written::total        2748160                       # Number of bytes written to this memory
system.mem_ctrls2.num_reads::ruby.dir_cntrl2        71355                       # Number of read requests responded to by this memory
system.mem_ctrls2.num_reads::total              71355                       # Number of read requests responded to by this memory
system.mem_ctrls2.num_writes::ruby.dir_cntrl2        42940                       # Number of write requests responded to by this memory
system.mem_ctrls2.num_writes::total             42940                       # Number of write requests responded to by this memory
system.mem_ctrls2.bw_read::ruby.dir_cntrl2    118048485                       # Total read bandwidth from this memory (bytes/s)
system.mem_ctrls2.bw_read::total            118048485                       # Total read bandwidth from this memory (bytes/s)
system.mem_ctrls2.bw_write::ruby.dir_cntrl2     71039198                       # Write bandwidth from this memory (bytes/s)
system.mem_ctrls2.bw_write::total            71039198                       # Write bandwidth from this memory (bytes/s)
system.mem_ctrls2.bw_total::ruby.dir_cntrl2    189087683                       # Total bandwidth to/from this memory (bytes/s)
system.mem_ctrls2.bw_total::total           189087683                       # Total bandwidth to/from this memory (bytes/s)
system.mem_ctrls2.readReqs                      71355                       # Number of read requests accepted
system.mem_ctrls2.writeReqs                     42940                       # Number of write requests accepted
system.mem_ctrls2.readBursts                    71355                       # Number of DRAM read bursts, including those serviced by the write queue
system.mem_ctrls2.writeBursts                   42940                       # Number of DRAM write bursts, including those merged in the write queue
system.mem_ctrls2.bytesReadDRAM               4565696                       # Total number of bytes read from DRAM
system.mem_ctrls2.bytesReadWrQ                   1024                       # Total number of bytes read from write queue
system.mem_ctrls2.bytesWritten                2747968                       # Total number of bytes written to DRAM
system.mem_ctrls2.bytesReadSys                4566720                       # Total read bytes from the system interface side
system.mem_ctrls2.bytesWrittenSys             2748160                       # Total written bytes from the system interface side
system.mem_ctrls2.servicedByWrQ                    16                       # Number of DRAM read bursts serviced by the write queue
system.mem_ctrls2.mergedWrBursts                    0                       # Number of DRAM write bursts merged with an existing one
system.mem_ctrls2.neitherReadNorWriteReqs            0                       # Number of requests that are neither read nor write
system.mem_ctrls2.perBankRdBursts::0             4292                       # Per bank write bursts
system.mem_ctrls2.perBankRdBursts::1             4781                       # Per bank write bursts
system.mem_ctrls2.perBankRdBursts::2             4434                       # Per bank write bursts
system.mem_ctrls2.perBankRdBursts::3             4798                       # Per bank write bursts
system.mem_ctrls2.perBankRdBursts::4             4535                       # Per bank write bursts
system.mem_ctrls2.perBankRdBursts::5             4626                       # Per bank write bursts
system.mem_ctrls2.perBankRdBursts::6             4419                       # Per bank write bursts
system.mem_ctrls2.perBankRdBursts::7             4419                       # Per bank write bursts
system.mem_ctrls2.perBankRdBursts::8             4356                       # Per bank write bursts
system.mem_ctrls2.perBankRdBursts::9             4653                       # Per bank write bursts
system.mem_ctrls2.perBankRdBursts::10            4395                       # Per bank write bursts
system.mem_ctrls2.perBankRdBursts::11            4652                       # Per bank write bursts
system.mem_ctrls2.perBankRdBursts::12            4240                       # Per bank write bursts
system.mem_ctrls2.perBankRdBursts::13            4073                       # Per bank write bursts
system.mem_ctrls2.perBankRdBursts::14            4263                       # Per bank write bursts
system.mem_ctrls2.perBankRdBursts::15            4403                       # Per bank write bursts
system.mem_ctrls2.perBankWrBursts::0             2703                       # Per bank write bursts
system.mem_ctrls2.perBankWrBursts::1             2712                       # Per bank write bursts
system.mem_ctrls2.perBankWrBursts::2             2688                       # Per bank write bursts
system.mem_ctrls2.perBankWrBursts::3             2789                       # Per bank write bursts
system.mem_ctrls2.perBankWrBursts::4             2697                       # Per bank write bursts
system.mem_ctrls2.perBankWrBursts::5             2821                       # Per bank write bursts
system.mem_ctrls2.perBankWrBursts::6             2646                       # Per bank write bursts
system.mem_ctrls2.perBankWrBursts::7             2734                       # Per bank write bursts
system.mem_ctrls2.perBankWrBursts::8             2629                       # Per bank write bursts
system.mem_ctrls2.perBankWrBursts::9             2811                       # Per bank write bursts
system.mem_ctrls2.perBankWrBursts::10            2656                       # Per bank write bursts
system.mem_ctrls2.perBankWrBursts::11            2599                       # Per bank write bursts
system.mem_ctrls2.perBankWrBursts::12            2535                       # Per bank write bursts
system.mem_ctrls2.perBankWrBursts::13            2548                       # Per bank write bursts
system.mem_ctrls2.perBankWrBursts::14            2715                       # Per bank write bursts
system.mem_ctrls2.perBankWrBursts::15            2654                       # Per bank write bursts
system.mem_ctrls2.numRdRetry                     2950                       # Number of times read queue was full causing retry
system.mem_ctrls2.numWrRetry                     2378                       # Number of times write queue was full causing retry
system.mem_ctrls2.totGap                  38684595500                       # Total gap between requests
system.mem_ctrls2.readPktSize::0                    0                       # Read request sizes (log2)
system.mem_ctrls2.readPktSize::1                    0                       # Read request sizes (log2)
system.mem_ctrls2.readPktSize::2                    0                       # Read request sizes (log2)
system.mem_ctrls2.readPktSize::3                    0                       # Read request sizes (log2)
system.mem_ctrls2.readPktSize::4                    0                       # Read request sizes (log2)
system.mem_ctrls2.readPktSize::5                    0                       # Read request sizes (log2)
system.mem_ctrls2.readPktSize::6                71355                       # Read request sizes (log2)
system.mem_ctrls2.writePktSize::0                   0                       # Write request sizes (log2)
system.mem_ctrls2.writePktSize::1                   0                       # Write request sizes (log2)
system.mem_ctrls2.writePktSize::2                   0                       # Write request sizes (log2)
system.mem_ctrls2.writePktSize::3                   0                       # Write request sizes (log2)
system.mem_ctrls2.writePktSize::4                   0                       # Write request sizes (log2)
system.mem_ctrls2.writePktSize::5                   0                       # Write request sizes (log2)
system.mem_ctrls2.writePktSize::6               42940                       # Write request sizes (log2)
system.mem_ctrls2.rdQLenPdf::0                  42864                       # What read queue length does an incoming req see
system.mem_ctrls2.rdQLenPdf::1                   1307                       # What read queue length does an incoming req see
system.mem_ctrls2.rdQLenPdf::2                   1261                       # What read queue length does an incoming req see
system.mem_ctrls2.rdQLenPdf::3                   1332                       # What read queue length does an incoming req see
system.mem_ctrls2.rdQLenPdf::4                   1378                       # What read queue length does an incoming req see
system.mem_ctrls2.rdQLenPdf::5                   1437                       # What read queue length does an incoming req see
system.mem_ctrls2.rdQLenPdf::6                   1376                       # What read queue length does an incoming req see
system.mem_ctrls2.rdQLenPdf::7                   1400                       # What read queue length does an incoming req see
system.mem_ctrls2.rdQLenPdf::8                   1275                       # What read queue length does an incoming req see
system.mem_ctrls2.rdQLenPdf::9                   1185                       # What read queue length does an incoming req see
system.mem_ctrls2.rdQLenPdf::10                  1147                       # What read queue length does an incoming req see
system.mem_ctrls2.rdQLenPdf::11                  1030                       # What read queue length does an incoming req see
system.mem_ctrls2.rdQLenPdf::12                   968                       # What read queue length does an incoming req see
system.mem_ctrls2.rdQLenPdf::13                   890                       # What read queue length does an incoming req see
system.mem_ctrls2.rdQLenPdf::14                   857                       # What read queue length does an incoming req see
system.mem_ctrls2.rdQLenPdf::15                   765                       # What read queue length does an incoming req see
system.mem_ctrls2.rdQLenPdf::16                   788                       # What read queue length does an incoming req see
system.mem_ctrls2.rdQLenPdf::17                   730                       # What read queue length does an incoming req see
system.mem_ctrls2.rdQLenPdf::18                   670                       # What read queue length does an incoming req see
system.mem_ctrls2.rdQLenPdf::19                   626                       # What read queue length does an incoming req see
system.mem_ctrls2.rdQLenPdf::20                   584                       # What read queue length does an incoming req see
system.mem_ctrls2.rdQLenPdf::21                   483                       # What read queue length does an incoming req see
system.mem_ctrls2.rdQLenPdf::22                   463                       # What read queue length does an incoming req see
system.mem_ctrls2.rdQLenPdf::23                   455                       # What read queue length does an incoming req see
system.mem_ctrls2.rdQLenPdf::24                   385                       # What read queue length does an incoming req see
system.mem_ctrls2.rdQLenPdf::25                   364                       # What read queue length does an incoming req see
system.mem_ctrls2.rdQLenPdf::26                   357                       # What read queue length does an incoming req see
system.mem_ctrls2.rdQLenPdf::27                   353                       # What read queue length does an incoming req see
system.mem_ctrls2.rdQLenPdf::28                   361                       # What read queue length does an incoming req see
system.mem_ctrls2.rdQLenPdf::29                   388                       # What read queue length does an incoming req see
system.mem_ctrls2.rdQLenPdf::30                   413                       # What read queue length does an incoming req see
system.mem_ctrls2.rdQLenPdf::31                  3447                       # What read queue length does an incoming req see
system.mem_ctrls2.wrQLenPdf::0                   7266                       # What write queue length does an incoming req see
system.mem_ctrls2.wrQLenPdf::1                   7478                       # What write queue length does an incoming req see
system.mem_ctrls2.wrQLenPdf::2                   7602                       # What write queue length does an incoming req see
system.mem_ctrls2.wrQLenPdf::3                   7618                       # What write queue length does an incoming req see
system.mem_ctrls2.wrQLenPdf::4                   7734                       # What write queue length does an incoming req see
system.mem_ctrls2.wrQLenPdf::5                    940                       # What write queue length does an incoming req see
system.mem_ctrls2.wrQLenPdf::6                   1023                       # What write queue length does an incoming req see
system.mem_ctrls2.wrQLenPdf::7                   3279                       # What write queue length does an incoming req see
system.mem_ctrls2.bytesPerActivate::samples        28662                       # Bytes accessed per row activation
system.mem_ctrls2.bytesPerActivate::mean   255.153723                       # Bytes accessed per row activation
system.mem_ctrls2.bytesPerActivate::gmean   175.704171                       # Bytes accessed per row activation
system.mem_ctrls2.bytesPerActivate::stdev   238.020448                       # Bytes accessed per row activation
system.mem_ctrls2.bytesPerActivate::0-127         9422     32.87%     32.87% # Bytes accessed per row activation
system.mem_ctrls2.bytesPerActivate::128-255         6509     22.71%     55.58% # Bytes accessed per row activation
system.mem_ctrls2.bytesPerActivate::256-383         7977     27.83%     83.41% # Bytes accessed per row activation
system.mem_ctrls2.bytesPerActivate::384-511         1139      3.97%     87.39% # Bytes accessed per row activation
system.mem_ctrls2.bytesPerActivate::512-639          932      3.25%     90.64% # Bytes accessed per row activation
system.mem_ctrls2.bytesPerActivate::640-767          669      2.33%     92.97% # Bytes accessed per row activation
system.mem_ctrls2.bytesPerActivate::768-895          557      1.94%     94.92% # Bytes accessed per row activation
system.mem_ctrls2.bytesPerActivate::896-1023          465      1.62%     96.54% # Bytes accessed per row activation
system.mem_ctrls2.bytesPerActivate::1024-1151          992      3.46%    100.00% # Bytes accessed per row activation
system.mem_ctrls2.bytesPerActivate::total        28662                       # Bytes accessed per row activation
system.mem_ctrls2.rdPerTurnAround::samples         7496                       # Reads before turning the bus around for writes
system.mem_ctrls2.rdPerTurnAround::mean      9.513340                       # Reads before turning the bus around for writes
system.mem_ctrls2.rdPerTurnAround::stdev    38.110448                       # Reads before turning the bus around for writes
system.mem_ctrls2.rdPerTurnAround::0-127         7491     99.93%     99.93% # Reads before turning the bus around for writes
system.mem_ctrls2.rdPerTurnAround::128-255            3      0.04%     99.97% # Reads before turning the bus around for writes
system.mem_ctrls2.rdPerTurnAround::1152-1279            1      0.01%     99.99% # Reads before turning the bus around for writes
system.mem_ctrls2.rdPerTurnAround::2816-2943            1      0.01%    100.00% # Reads before turning the bus around for writes
system.mem_ctrls2.rdPerTurnAround::total         7496                       # Reads before turning the bus around for writes
system.mem_ctrls2.wrPerTurnAround::samples         7496                       # Writes before turning the bus around for reads
system.mem_ctrls2.wrPerTurnAround::mean      5.727988                       # Writes before turning the bus around for reads
system.mem_ctrls2.wrPerTurnAround::gmean     5.451943                       # Writes before turning the bus around for reads
system.mem_ctrls2.wrPerTurnAround::stdev     2.426735                       # Writes before turning the bus around for reads
system.mem_ctrls2.wrPerTurnAround::4-7           6880     91.78%     91.78% # Writes before turning the bus around for reads
system.mem_ctrls2.wrPerTurnAround::8-11           205      2.73%     94.52% # Writes before turning the bus around for reads
system.mem_ctrls2.wrPerTurnAround::12-15          132      1.76%     96.28% # Writes before turning the bus around for reads
system.mem_ctrls2.wrPerTurnAround::16-19          279      3.72%    100.00% # Writes before turning the bus around for reads
system.mem_ctrls2.wrPerTurnAround::total         7496                       # Writes before turning the bus around for reads
system.mem_ctrls2.totQLat                  4624079527                       # Total ticks spent queuing
system.mem_ctrls2.totMemAccLat             5961685777                       # Total ticks spent from burst creation until serviced by the DRAM
system.mem_ctrls2.totBusLat                 356695000                       # Total ticks spent in databus transfers
system.mem_ctrls2.avgQLat                    64818.40                       # Average queueing delay per DRAM burst
system.mem_ctrls2.avgBusLat                   5000.00                       # Average bus latency per DRAM burst
system.mem_ctrls2.avgMemAccLat               83568.40                       # Average memory access latency per DRAM burst
system.mem_ctrls2.avgRdBW                      118.02                       # Average DRAM read bandwidth in MiByte/s
system.mem_ctrls2.avgWrBW                       71.03                       # Average achieved write bandwidth in MiByte/s
system.mem_ctrls2.avgRdBWSys                   118.05                       # Average system read bandwidth in MiByte/s
system.mem_ctrls2.avgWrBWSys                    71.04                       # Average system write bandwidth in MiByte/s
system.mem_ctrls2.peakBW                     12800.00                       # Theoretical peak bandwidth in MiByte/s
system.mem_ctrls2.busUtil                        1.48                       # Data bus utilization in percentage
system.mem_ctrls2.busUtilRead                    0.92                       # Data bus utilization in percentage for reads
system.mem_ctrls2.busUtilWrite                   0.55                       # Data bus utilization in percentage for writes
system.mem_ctrls2.avgRdQLen                      1.14                       # Average read queue length when enqueuing
system.mem_ctrls2.avgWrQLen                      2.88                       # Average write queue length when enqueuing
system.mem_ctrls2.readRowHits                   55869                       # Number of row buffer hits during reads
system.mem_ctrls2.writeRowHits                  29742                       # Number of row buffer hits during writes
system.mem_ctrls2.readRowHitRate                78.31                       # Row buffer hit rate for reads
system.mem_ctrls2.writeRowHitRate               69.26                       # Row buffer hit rate for writes
system.mem_ctrls2.avgGap                    338462.71                       # Average gap between requests
system.mem_ctrls2.pageHitRate                   74.91                       # Row buffer hit rate, read and write combined
system.mem_ctrls2.memoryStateTime::IDLE   10523143250                       # Time in different power states
system.mem_ctrls2.memoryStateTime::REF     1291680000                       # Time in different power states
system.mem_ctrls2.memoryStateTime::PRE_PDN            0                       # Time in different power states
system.mem_ctrls2.memoryStateTime::ACT    26867748750                       # Time in different power states
system.mem_ctrls2.memoryStateTime::ACT_PDN            0                       # Time in different power states
system.mem_ctrls2.actEnergy::0              113097600                       # Energy for activate commands per rank (pJ)
system.mem_ctrls2.actEnergy::1              103572000                       # Energy for activate commands per rank (pJ)
system.mem_ctrls2.preEnergy::0               61710000                       # Energy for precharge commands per rank (pJ)
system.mem_ctrls2.preEnergy::1               56512500                       # Energy for precharge commands per rank (pJ)
system.mem_ctrls2.readEnergy::0             283140000                       # Energy for read commands per rank (pJ)
system.mem_ctrls2.readEnergy::1             273234000                       # Energy for read commands per rank (pJ)
system.mem_ctrls2.writeEnergy::0            141199200                       # Energy for write commands per rank (pJ)
system.mem_ctrls2.writeEnergy::1            137032560                       # Energy for write commands per rank (pJ)
system.mem_ctrls2.refreshEnergy::0         2526526080                       # Energy for refresh commands per rank (pJ)
system.mem_ctrls2.refreshEnergy::1         2526526080                       # Energy for refresh commands per rank (pJ)
system.mem_ctrls2.actBackEnergy::0        14006236365                       # Energy for active background per rank (pJ)
system.mem_ctrls2.actBackEnergy::1        13362701805                       # Energy for active background per rank (pJ)
system.mem_ctrls2.preBackEnergy::0        10923237750                       # Energy for precharge background per rank (pJ)
system.mem_ctrls2.preBackEnergy::1        11487741750                       # Energy for precharge background per rank (pJ)
system.mem_ctrls2.totalEnergy::0          28055146995                       # Total energy per rank (pJ)
system.mem_ctrls2.totalEnergy::1          27947320695                       # Total energy per rank (pJ)
system.mem_ctrls2.averagePower::0          725.269974                       # Core power per rank (mW)
system.mem_ctrls2.averagePower::1          722.482494                       # Core power per rank (mW)
system.mem_ctrls3.bytes_read::ruby.dir_cntrl3      4548544                       # Number of bytes read from this memory
system.mem_ctrls3.bytes_read::total           4548544                       # Number of bytes read from this memory
system.mem_ctrls3.bytes_written::ruby.dir_cntrl3      2743616                       # Number of bytes written to this memory
system.mem_ctrls3.bytes_written::total        2743616                       # Number of bytes written to this memory
system.mem_ctrls3.num_reads::ruby.dir_cntrl3        71071                       # Number of read requests responded to by this memory
system.mem_ctrls3.num_reads::total              71071                       # Number of read requests responded to by this memory
system.mem_ctrls3.num_writes::ruby.dir_cntrl3        42869                       # Number of write requests responded to by this memory
system.mem_ctrls3.num_writes::total             42869                       # Number of write requests responded to by this memory
system.mem_ctrls3.bw_read::ruby.dir_cntrl3    117578641                       # Total read bandwidth from this memory (bytes/s)
system.mem_ctrls3.bw_read::total            117578641                       # Total read bandwidth from this memory (bytes/s)
system.mem_ctrls3.bw_write::ruby.dir_cntrl3     70921737                       # Write bandwidth from this memory (bytes/s)
system.mem_ctrls3.bw_write::total            70921737                       # Write bandwidth from this memory (bytes/s)
system.mem_ctrls3.bw_total::ruby.dir_cntrl3    188500377                       # Total bandwidth to/from this memory (bytes/s)
system.mem_ctrls3.bw_total::total           188500377                       # Total bandwidth to/from this memory (bytes/s)
system.mem_ctrls3.readReqs                      71072                       # Number of read requests accepted
system.mem_ctrls3.writeReqs                     42869                       # Number of write requests accepted
system.mem_ctrls3.readBursts                    71072                       # Number of DRAM read bursts, including those serviced by the write queue
system.mem_ctrls3.writeBursts                   42869                       # Number of DRAM write bursts, including those merged in the write queue
system.mem_ctrls3.bytesReadDRAM               4548160                       # Total number of bytes read from DRAM
system.mem_ctrls3.bytesReadWrQ                    448                       # Total number of bytes read from write queue
system.mem_ctrls3.bytesWritten                2743424                       # Total number of bytes written to DRAM
system.mem_ctrls3.bytesReadSys                4548608                       # Total read bytes from the system interface side
system.mem_ctrls3.bytesWrittenSys             2743616                       # Total written bytes from the system interface side
system.mem_ctrls3.servicedByWrQ                     7                       # Number of DRAM read bursts serviced by the write queue
system.mem_ctrls3.mergedWrBursts                    0                       # Number of DRAM write bursts merged with an existing one
system.mem_ctrls3.neitherReadNorWriteReqs            0                       # Number of requests that are neither read nor write
system.mem_ctrls3.perBankRdBursts::0             4281                       # Per bank write bursts
system.mem_ctrls3.perBankRdBursts::1             4737                       # Per bank write bursts
system.mem_ctrls3.perBankRdBursts::2             4407                       # Per bank write bursts
system.mem_ctrls3.perBankRdBursts::3             4759                       # Per bank write bursts
system.mem_ctrls3.perBankRdBursts::4             4487                       # Per bank write bursts
system.mem_ctrls3.perBankRdBursts::5             4595                       # Per bank write bursts
system.mem_ctrls3.perBankRdBursts::6             4405                       # Per bank write bursts
system.mem_ctrls3.perBankRdBursts::7             4417                       # Per bank write bursts
system.mem_ctrls3.perBankRdBursts::8             4365                       # Per bank write bursts
system.mem_ctrls3.perBankRdBursts::9             4633                       # Per bank write bursts
system.mem_ctrls3.perBankRdBursts::10            4406                       # Per bank write bursts
system.mem_ctrls3.perBankRdBursts::11            4620                       # Per bank write bursts
system.mem_ctrls3.perBankRdBursts::12            4224                       # Per bank write bursts
system.mem_ctrls3.perBankRdBursts::13            4052                       # Per bank write bursts
system.mem_ctrls3.perBankRdBursts::14            4276                       # Per bank write bursts
system.mem_ctrls3.perBankRdBursts::15            4401                       # Per bank write bursts
system.mem_ctrls3.perBankWrBursts::0             2708                       # Per bank write bursts
system.mem_ctrls3.perBankWrBursts::1             2700                       # Per bank write bursts
system.mem_ctrls3.perBankWrBursts::2             2689                       # Per bank write bursts
system.mem_ctrls3.perBankWrBursts::3             2773                       # Per bank write bursts
system.mem_ctrls3.perBankWrBursts::4             2690                       # Per bank write bursts
system.mem_ctrls3.perBankWrBursts::5             2815                       # Per bank write bursts
system.mem_ctrls3.perBankWrBursts::6             2639                       # Per bank write bursts
system.mem_ctrls3.perBankWrBursts::7             2726                       # Per bank write bursts
system.mem_ctrls3.perBankWrBursts::8             2625                       # Per bank write bursts
system.mem_ctrls3.perBankWrBursts::9             2804                       # Per bank write bursts
system.mem_ctrls3.perBankWrBursts::10            2651                       # Per bank write bursts
system.mem_ctrls3.perBankWrBursts::11            2605                       # Per bank write bursts
system.mem_ctrls3.perBankWrBursts::12            2531                       # Per bank write bursts
system.mem_ctrls3.perBankWrBursts::13            2555                       # Per bank write bursts
system.mem_ctrls3.perBankWrBursts::14            2707                       # Per bank write bursts
system.mem_ctrls3.perBankWrBursts::15            2648                       # Per bank write bursts
system.mem_ctrls3.numRdRetry                     3209                       # Number of times read queue was full causing retry
system.mem_ctrls3.numWrRetry                     2569                       # Number of times write queue was full causing retry
system.mem_ctrls3.totGap                  38684379000                       # Total gap between requests
system.mem_ctrls3.readPktSize::0                    0                       # Read request sizes (log2)
system.mem_ctrls3.readPktSize::1                    0                       # Read request sizes (log2)
system.mem_ctrls3.readPktSize::2                    0                       # Read request sizes (log2)
system.mem_ctrls3.readPktSize::3                    0                       # Read request sizes (log2)
system.mem_ctrls3.readPktSize::4                    0                       # Read request sizes (log2)
system.mem_ctrls3.readPktSize::5                    0                       # Read request sizes (log2)
system.mem_ctrls3.readPktSize::6                71072                       # Read request sizes (log2)
system.mem_ctrls3.writePktSize::0                   0                       # Write request sizes (log2)
system.mem_ctrls3.writePktSize::1                   0                       # Write request sizes (log2)
system.mem_ctrls3.writePktSize::2                   0                       # Write request sizes (log2)
system.mem_ctrls3.writePktSize::3                   0                       # Write request sizes (log2)
system.mem_ctrls3.writePktSize::4                   0                       # Write request sizes (log2)
system.mem_ctrls3.writePktSize::5                   0                       # Write request sizes (log2)
system.mem_ctrls3.writePktSize::6               42869                       # Write request sizes (log2)
system.mem_ctrls3.rdQLenPdf::0                  42622                       # What read queue length does an incoming req see
system.mem_ctrls3.rdQLenPdf::1                   1231                       # What read queue length does an incoming req see
system.mem_ctrls3.rdQLenPdf::2                   1058                       # What read queue length does an incoming req see
system.mem_ctrls3.rdQLenPdf::3                   1166                       # What read queue length does an incoming req see
system.mem_ctrls3.rdQLenPdf::4                   1208                       # What read queue length does an incoming req see
system.mem_ctrls3.rdQLenPdf::5                   1351                       # What read queue length does an incoming req see
system.mem_ctrls3.rdQLenPdf::6                   1255                       # What read queue length does an incoming req see
system.mem_ctrls3.rdQLenPdf::7                   1203                       # What read queue length does an incoming req see
system.mem_ctrls3.rdQLenPdf::8                   1108                       # What read queue length does an incoming req see
system.mem_ctrls3.rdQLenPdf::9                   1160                       # What read queue length does an incoming req see
system.mem_ctrls3.rdQLenPdf::10                  1106                       # What read queue length does an incoming req see
system.mem_ctrls3.rdQLenPdf::11                  1152                       # What read queue length does an incoming req see
system.mem_ctrls3.rdQLenPdf::12                  1056                       # What read queue length does an incoming req see
system.mem_ctrls3.rdQLenPdf::13                  1017                       # What read queue length does an incoming req see
system.mem_ctrls3.rdQLenPdf::14                   883                       # What read queue length does an incoming req see
system.mem_ctrls3.rdQLenPdf::15                   790                       # What read queue length does an incoming req see
system.mem_ctrls3.rdQLenPdf::16                   744                       # What read queue length does an incoming req see
system.mem_ctrls3.rdQLenPdf::17                   648                       # What read queue length does an incoming req see
system.mem_ctrls3.rdQLenPdf::18                   587                       # What read queue length does an incoming req see
system.mem_ctrls3.rdQLenPdf::19                   590                       # What read queue length does an incoming req see
system.mem_ctrls3.rdQLenPdf::20                   614                       # What read queue length does an incoming req see
system.mem_ctrls3.rdQLenPdf::21                   600                       # What read queue length does an incoming req see
system.mem_ctrls3.rdQLenPdf::22                   543                       # What read queue length does an incoming req see
system.mem_ctrls3.rdQLenPdf::23                   508                       # What read queue length does an incoming req see
system.mem_ctrls3.rdQLenPdf::24                   495                       # What read queue length does an incoming req see
[...]
system.ruby.L2Cache_Controller.ISS.Mem_Data::total       124030                      
system.ruby.L2Cache_Controller.IS.Mem_Data |         398      3.22%      3.22% |         358      2.90%      6.12% |         375      3.04%      9.16% |         371      3.00%     12.16% |         378      3.06%     15.22% |         365      2.95%     18.18% |         379      3.07%     21.24% |         386      3.12%     24.37% |         373      3.02%     27.39% |         383      3.10%     30.49% |         407      3.30%     33.78% |         404      3.27%     37.05% |         412      3.34%     40.39% |         407      3.30%     43.69% |         408      3.30%     46.99% |         405      3.28%     50.27% |         413      3.34%     53.61% |         390      3.16%     56.77% |         388      3.14%     59.91% |         370      3.00%     62.90% |         364      2.95%     65.85% |         370      3.00%     68.85% |         369      2.99%     71.83% |         367      2.97%     74.81% |         395      3.20%     78.00% |         406      3.29%     81.29% |         412      3.34%     84.63% |         379      3.07%     87.69% |         382      3.09%     90.79% |         382      3.09%     93.88% |         384      3.11%     96.99% |         372      3.01%    100.00%
system.ruby.L2Cache_Controller.IS.Mem_Data::total        12352                      
system.ruby.L2Cache_Controller.IM.Mem_Data |        4705      3.12%      3.12% |        4697      3.12%      6.24% |        4706      3.12%      9.37% |        4713      3.13%     12.50% |        4704      3.12%     15.62% |        4711      3.13%     18.75% |        4710      3.13%     21.88% |        4694      3.12%     24.99% |        4710      3.13%     28.12% |        4711      3.13%     31.25% |        4696      3.12%     34.37% |        4715      3.13%     37.50% |        4700      3.12%     40.62% |        4703      3.12%     43.74% |        4702      3.12%     46.86% |        4698      3.12%     49.98% |        4716      3.13%     53.12% |        4710      3.13%     56.24% |        4712      3.13%     59.37% |        4706      3.12%     62.50% |        4709      3.13%     65.62% |        4722      3.14%     68.76% |        4701      3.12%     71.88% |        4707      3.13%     75.01% |        4720      3.13%     78.14% |        4710      3.13%     81.27% |        4716      3.13%     84.40% |        4702      3.12%     87.52% |        4703      3.12%     90.64% |        4699      3.12%     93.76% |        4703      3.12%     96.89% |        4688      3.11%    100.00%
system.ruby.L2Cache_Controller.IM.Mem_Data::total       150599                      
system.ruby.L2Cache_Controller.SS_MB.Exclusive_Unblock |           3      6.82%      6.82% |           6     13.64%     20.45% |           3      6.82%     27.27% |           4      9.09%     36.36% |           0      0.00%     36.36% |           0      0.00%     36.36% |           0      0.00%     36.36% |           0      0.00%     36.36% |           0      0.00%     36.36% |           0      0.00%     36.36% |           0      0.00%     36.36% |           0      0.00%     36.36% |           3      6.82%     43.18% |           0      0.00%     43.18% |           4      9.09%     52.27% |           0      0.00%     52.27% |           1      2.27%     54.55% |           0      0.00%     54.55% |          11     25.00%     79.55% |           2      4.55%     84.09% |           0      0.00%     84.09% |           1      2.27%     86.36% |           0      0.00%     86.36% |           1      2.27%     88.64% |           1      2.27%     90.91% |           0      0.00%     90.91% |           1      2.27%     93.18% |           2      4.55%     97.73% |           1      2.27%    100.00% |           0      0.00%    100.00% |           0      0.00%    100.00% |           0      0.00%    100.00%
system.ruby.L2Cache_Controller.SS_MB.Exclusive_Unblock::total           44                      
system.ruby.L2Cache_Controller.MT_MB.L1_PUTX |           1    100.00%    100.00% |           0      0.00%    100.00% |           0      0.00%    100.00% |           0      0.00%    100.00% |           0      0.00%    100.00% |           0      0.00%    100.00% |           0      0.00%    100.00% |           0      0.00%    100.00% |           0      0.00%    100.00% |           0      0.00%    100.00% |           0      0.00%    100.00% |           0      0.00%    100.00% |           0      0.00%    100.00% |           0      0.00%    100.00% |           0      0.00%    100.00% |           0      0.00%    100.00% |           0      0.00%    100.00% |           0      0.00%    100.00% |           0      0.00%    100.00% |           0      0.00%    100.00% |           0      0.00%    100.00% |           0      0.00%    100.00% |           0      0.00%    100.00% |           0      0.00%    100.00% |           0      0.00%    100.00% |           0      0.00%    100.00% |           0      0.00%    100.00% |           0      0.00%    100.00% |           0      0.00%    100.00% |           0      0.00%    100.00% |           0      0.00%    100.00% |           0      0.00%    100.00%
system.ruby.L2Cache_Controller.MT_MB.L1_PUTX::total            1                      
system.ruby.L2Cache_Controller.MT_MB.Exclusive_Unblock |       60448     12.24%     12.24% |       15538      3.15%     15.38% |       12748      2.58%     17.96% |       14800      3.00%     20.96% |       13335      2.70%     23.66% |       12717      2.57%     26.23% |       12241      2.48%     28.71% |       12902      2.61%     31.32% |       13095      2.65%     33.97% |       12757      2.58%     36.56% |       15511      3.14%     39.70% |       15760      3.19%     42.89% |       14127      2.86%     45.75% |       13215      2.68%     48.42% |       11999      2.43%     50.85% |       12462      2.52%     53.38% |       13993      2.83%     56.21% |       12805      2.59%     58.80% |       13227      2.68%     61.48% |       14224      2.88%     64.36% |       14905      3.02%     67.38% |       15885      3.22%     70.59% |       13722      2.78%     73.37% |       13754      2.78%     76.15% |       13836      2.80%     78.95% |       13398      2.71%     81.67% |       13250      2.68%     84.35% |       12958      2.62%     86.97% |       15562      3.15%     90.12% |       13986      2.83%     92.95% |       16357      3.31%     96.27% |       18447      3.73%    100.00%
system.ruby.L2Cache_Controller.MT_MB.Exclusive_Unblock::total       493964                      
system.ruby.L2Cache_Controller.MT_IIB.L1_PUTX |           0      0.00%      0.00% |           0      0.00%      0.00% |           0      0.00%      0.00% |           0      0.00%      0.00% |           0      0.00%      0.00% |           0      0.00%      0.00% |           0      0.00%      0.00% |           0      0.00%      0.00% |           0      0.00%      0.00% |           0      0.00%      0.00% |           0      0.00%      0.00% |           0      0.00%      0.00% |           0      0.00%      0.00% |           0      0.00%      0.00% |           0      0.00%      0.00% |           0      0.00%      0.00% |           4    100.00%    100.00% |           0      0.00%    100.00% |           0      0.00%    100.00% |           0      0.00%    100.00% |           0      0.00%    100.00% |           0      0.00%    100.00% |           0      0.00%    100.00% |           0      0.00%    100.00% |           0      0.00%    100.00% |           0      0.00%    100.00% |           0      0.00%    100.00% |           0      0.00%    100.00% |           0      0.00%    100.00% |           0      0.00%    100.00% |           0      0.00%    100.00% |           0      0.00%    100.00%
system.ruby.L2Cache_Controller.MT_IIB.L1_PUTX::total            4                      
system.ruby.L2Cache_Controller.MT_IIB.WB_Data |           0      0.00%      0.00% |           1     20.00%     20.00% |           1     20.00%     40.00% |           1     20.00%     60.00% |           0      0.00%     60.00% |           0      0.00%     60.00% |           1     20.00%     80.00% |           0      0.00%     80.00% |           0      0.00%     80.00% |           1     20.00%    100.00% |           0      0.00%    100.00% |           0      0.00%    100.00% |           0      0.00%    100.00% |           0      0.00%    100.00% |           0      0.00%    100.00% |           0      0.00%    100.00% |           0      0.00%    100.00% |           0      0.00%    100.00% |           0      0.00%    100.00% |           0      0.00%    100.00% |           0      0.00%    100.00% |           0      0.00%    100.00% |           0      0.00%    100.00% |           0      0.00%    100.00% |           0      0.00%    100.00% |           0      0.00%    100.00% |           0      0.00%    100.00% |           0      0.00%    100.00% |           0      0.00%    100.00% |           0      0.00%    100.00% |           0      0.00%    100.00% |           0      0.00%    100.00%
system.ruby.L2Cache_Controller.MT_IIB.WB_Data::total            5                      
system.ruby.L2Cache_Controller.MT_IIB.WB_Data_clean |        2932     51.38%     51.38% |           0      0.00%     51.38% |           0      0.00%     51.38% |           0      0.00%     51.38% |           0      0.00%     51.38% |           0      0.00%     51.38% |           0      0.00%     51.38% |           0      0.00%     51.38% |           0      0.00%     51.38% |           0      0.00%     51.38% |           0      0.00%     51.38% |           0      0.00%     51.38% |           0      0.00%     51.38% |           0      0.00%     51.38% |           0      0.00%     51.38% |           0      0.00%     51.38% |        2774     48.62%    100.00% |           0      0.00%    100.00% |           0      0.00%    100.00% |           0      0.00%    100.00% |           0      0.00%    100.00% |           0      0.00%    100.00% |           0      0.00%    100.00% |           0      0.00%    100.00% |           0      0.00%    100.00% |           0      0.00%    100.00% |           0      0.00%    100.00% |           0      0.00%    100.00% |           0      0.00%    100.00% |           0      0.00%    100.00% |           0      0.00%    100.00% |           0      0.00%    100.00%
system.ruby.L2Cache_Controller.MT_IIB.WB_Data_clean::total         5706                      
system.ruby.L2Cache_Controller.MT_IIB.Unblock |          89     24.32%     24.32% |           0      0.00%     24.32% |           0      0.00%     24.32% |           0      0.00%     24.32% |           0      0.00%     24.32% |           0      0.00%     24.32% |           0      0.00%     24.32% |           0      0.00%     24.32% |           0      0.00%     24.32% |           0      0.00%     24.32% |           0      0.00%     24.32% |           0      0.00%     24.32% |           0      0.00%     24.32% |           0      0.00%     24.32% |           0      0.00%     24.32% |           0      0.00%     24.32% |         277     75.68%    100.00% |           0      0.00%    100.00% |           0      0.00%    100.00% |           0      0.00%    100.00% |           0      0.00%    100.00% |           0      0.00%    100.00% |           0      0.00%    100.00% |           0      0.00%    100.00% |           0      0.00%    100.00% |           0      0.00%    100.00% |           0      0.00%    100.00% |           0      0.00%    100.00% |           0      0.00%    100.00% |           0      0.00%    100.00% |           0      0.00%    100.00% |           0      0.00%    100.00%
system.ruby.L2Cache_Controller.MT_IIB.Unblock::total          366                      
system.ruby.L2Cache_Controller.MT_IB.WB_Data_clean |          89     24.32%     24.32% |           0      0.00%     24.32% |           0      0.00%     24.32% |           0      0.00%     24.32% |           0      0.00%     24.32% |           0      0.00%     24.32% |           0      0.00%     24.32% |           0      0.00%     24.32% |           0      0.00%     24.32% |           0      0.00%     24.32% |           0      0.00%     24.32% |           0      0.00%     24.32% |           0      0.00%     24.32% |           0      0.00%     24.32% |           0      0.00%     24.32% |           0      0.00%     24.32% |         277     75.68%    100.00% |           0      0.00%    100.00% |           0      0.00%    100.00% |           0      0.00%    100.00% |           0      0.00%    100.00% |           0      0.00%    100.00% |           0      0.00%    100.00% |           0      0.00%    100.00% |           0      0.00%    100.00% |           0      0.00%    100.00% |           0      0.00%    100.00% |           0      0.00%    100.00% |           0      0.00%    100.00% |           0      0.00%    100.00% |           0      0.00%    100.00% |           0      0.00%    100.00%
system.ruby.L2Cache_Controller.MT_IB.WB_Data_clean::total          366                      
system.ruby.L2Cache_Controller.MT_SB.Unblock |        2932     51.34%     51.34% |           1      0.02%     51.36% |           1      0.02%     51.37% |           1      0.02%     51.39% |           0      0.00%     51.39% |           0      0.00%     51.39% |           1      0.02%     51.41% |           0      0.00%     51.41% |           0      0.00%     51.41% |           1      0.02%     51.43% |           0      0.00%     51.43% |           0      0.00%     51.43% |           0      0.00%     51.43% |           0      0.00%     51.43% |           0      0.00%     51.43% |           0      0.00%     51.43% |        2774     48.57%    100.00% |           0      0.00%    100.00% |           0      0.00%    100.00% |           0      0.00%    100.00% |           0      0.00%    100.00% |           0      0.00%    100.00% |           0      0.00%    100.00% |           0      0.00%    100.00% |           0      0.00%    100.00% |           0      0.00%    100.00% |           0      0.00%    100.00% |           0      0.00%    100.00% |           0      0.00%    100.00% |           0      0.00%    100.00% |           0      0.00%    100.00% |           0      0.00%    100.00%
system.ruby.L2Cache_Controller.MT_SB.Unblock::total         5711                      
system.ruby.SimicsNetworkPortInterface_Controller.MessageSend |       16835     10.34%     10.34% |       81433     50.00%     60.34% |        4053      2.49%     62.83% |        4238      2.60%     65.43% |        3798      2.33%     67.76% |        4098      2.52%     70.28% |        4142      2.54%     72.82% |        3973      2.44%     75.26% |        4063      2.49%     77.75% |        4023      2.47%     80.22% |        4071      2.50%     82.72% |        4033      2.48%     85.20% |        3713      2.28%     87.48% |        4309      2.65%     90.12% |        4159      2.55%     92.68% |        3942      2.42%     95.10% |        3763      2.31%     97.41% |        4220      2.59%    100.00% |           0      0.00%    100.00% |           0      0.00%    100.00% |           0      0.00%    100.00% |           0      0.00%    100.00% |           0      0.00%    100.00% |           0      0.00%    100.00% |           0      0.00%    100.00% |           0      0.00%    100.00% |           0      0.00%    100.00% |           0      0.00%    100.00% |           0      0.00%    100.00% |           0      0.00%    100.00% |           0      0.00%    100.00% |           0      0.00%    100.00%
system.ruby.SimicsNetworkPortInterface_Controller.MessageSend::total       162866                      
system.ruby.SimicsNetworkPortInterface_Controller.MessageRecv |       16835     10.34%     10.34% |       81433     50.00%     60.34% |        4053      2.49%     62.83% |        4238      2.60%     65.43% |        3798      2.33%     67.76% |        4098      2.52%     70.28% |        4142      2.54%     72.82% |        3973      2.44%     75.26% |        4063      2.49%     77.75% |        4023      2.47%     80.22% |        4071      2.50%     82.72% |        4033      2.48%     85.20% |        3713      2.28%     87.48% |        4309      2.65%     90.12% |        4159      2.55%     92.68% |        3942      2.42%     95.10% |        3763      2.31%     97.41% |        4220      2.59%    100.00% |           0      0.00%    100.00% |           0      0.00%    100.00% |           0      0.00%    100.00% |           0      0.00%    100.00% |           0      0.00%    100.00% |           0      0.00%    100.00% |           0      0.00%    100.00% |           0      0.00%    100.00% |           0      0.00%    100.00% |           0      0.00%    100.00% |           0      0.00%    100.00% |           0      0.00%    100.00% |           0      0.00%    100.00% |           0      0.00%    100.00%
system.ruby.SimicsNetworkPortInterface_Controller.MessageRecv::total       162866                      
system.ruby.SimicsNetworkPortInterface_Controller.A.MessageSend |       16835     10.34%     10.34% |       81433     50.00%     60.34% |        4053      2.49%     62.83% |        4238      2.60%     65.43% |        3798      2.33%     67.76% |        4098      2.52%     70.28% |        4142      2.54%     72.82% |        3973      2.44%     75.26% |        4063      2.49%     77.75% |        4023      2.47%     80.22% |        4071      2.50%     82.72% |        4033      2.48%     85.20% |        3713      2.28%     87.48% |        4309      2.65%     90.12% |        4159      2.55%     92.68% |        3942      2.42%     95.10% |        3763      2.31%     97.41% |        4220      2.59%    100.00% |           0      0.00%    100.00% |           0      0.00%    100.00% |           0      0.00%    100.00% |           0      0.00%    100.00% |           0      0.00%    100.00% |           0      0.00%    100.00% |           0      0.00%    100.00% |           0      0.00%    100.00% |           0      0.00%    100.00% |           0      0.00%    100.00% |           0      0.00%    100.00% |           0      0.00%    100.00% |           0      0.00%    100.00% |           0      0.00%    100.00%
system.ruby.SimicsNetworkPortInterface_Controller.A.MessageSend::total       162866                      
system.ruby.SimicsNetworkPortInterface_Controller.A.MessageRecv |       16835     10.34%     10.34% |       81433     50.00%     60.34% |        4053      2.49%     62.83% |        4238      2.60%     65.43% |        3798      2.33%     67.76% |        4098      2.52%     70.28% |        4142      2.54%     72.82% |        3973      2.44%     75.26% |        4063      2.49%     77.75% |        4023      2.47%     80.22% |        4071      2.50%     82.72% |        4033      2.48%     85.20% |        3713      2.28%     87.48% |        4309      2.65%     90.12% |        4159      2.55%     92.68% |        3942      2.42%     95.10% |        3763      2.31%     97.41% |        4220      2.59%    100.00% |           0      0.00%    100.00% |           0      0.00%    100.00% |           0      0.00%    100.00% |           0      0.00%    100.00% |           0      0.00%    100.00% |           0      0.00%    100.00% |           0      0.00%    100.00% |           0      0.00%    100.00% |           0      0.00%    100.00% |           0      0.00%    100.00% |           0      0.00%    100.00% |           0      0.00%    100.00% |           0      0.00%    100.00% |           0      0.00%    100.00%
system.ruby.SimicsNetworkPortInterface_Controller.A.MessageRecv::total       162866                      
system.switch_cpus.kern.inst.arm                    0                       # number of arm instructions executed
system.switch_cpus.kern.inst.quiesce                0                       # number of quiesce instructions executed

---------- End Simulation Statistics   ----------
