
---------- Begin Simulation Statistics ----------
sim_seconds                                  0.131445                       # Number of seconds simulated
sim_ticks                                131445322000                       # Number of ticks simulated
final_tick                               5307613400500                       # Number of ticks from beginning of simulation (restored from checkpoints and never reset)
sim_freq                                 1000000000000                       # Frequency of simulated ticks
host_inst_rate                                  69987                       # Simulator instruction rate (inst/s)
host_op_rate                                   120564                       # Simulator op (including micro ops) rate (op/s)
host_tick_rate                              210752220                       # Simulator tick rate (ticks/s)
host_mem_usage                                4399584                       # Number of bytes of host memory used
host_seconds                                   623.70                       # Real time elapsed on the host
sim_insts                                    43650411                       # Number of instructions simulated
sim_ops                                      75195473                       # Number of ops (including micro ops) simulated
system.voltage_domain.voltage                       1                       # Voltage in Volts
system.clk_domain.clock                           500                       # Clock period in ticks
system.mem_ctrls0.bytes_read::ruby.dir_cntrl0     21451328                       # Number of bytes read from this memory
system.mem_ctrls0.bytes_read::total          21451328                       # Number of bytes read from this memory
system.mem_ctrls0.bytes_written::ruby.dir_cntrl0     13546048                       # Number of bytes written to this memory
system.mem_ctrls0.bytes_written::total       13546048                       # Number of bytes written to this memory
system.mem_ctrls0.num_reads::ruby.dir_cntrl0       335177                       # Number of read requests responded to by this memory
system.mem_ctrls0.num_reads::total             335177                       # Number of read requests responded to by this memory
system.mem_ctrls0.num_writes::ruby.dir_cntrl0       211657                       # Number of write requests responded to by this memory
system.mem_ctrls0.num_writes::total            211657                       # Number of write requests responded to by this memory
system.mem_ctrls0.bw_read::ruby.dir_cntrl0    163195827                       # Total read bandwidth from this memory (bytes/s)
system.mem_ctrls0.bw_read::total            163195827                       # Total read bandwidth from this memory (bytes/s)
system.mem_ctrls0.bw_write::ruby.dir_cntrl0    103054622                       # Write bandwidth from this memory (bytes/s)
system.mem_ctrls0.bw_write::total           103054622                       # Write bandwidth from this memory (bytes/s)
system.mem_ctrls0.bw_total::ruby.dir_cntrl0    266250449                       # Total bandwidth to/from this memory (bytes/s)
system.mem_ctrls0.bw_total::total           266250449                       # Total bandwidth to/from this memory (bytes/s)
system.mem_ctrls0.readReqs                     335177                       # Number of read requests accepted
system.mem_ctrls0.writeReqs                    211657                       # Number of write requests accepted
system.mem_ctrls0.readBursts                   335177                       # Number of DRAM read bursts, including those serviced by the write queue
system.mem_ctrls0.writeBursts                  211657                       # Number of DRAM write bursts, including those merged in the write queue
system.mem_ctrls0.bytesReadDRAM              21449920                       # Total number of bytes read from DRAM
system.mem_ctrls0.bytesReadWrQ                   1408                       # Total number of bytes read from write queue
system.mem_ctrls0.bytesWritten               13545792                       # Total number of bytes written to DRAM
system.mem_ctrls0.bytesReadSys               21451328                       # Total read bytes from the system interface side
system.mem_ctrls0.bytesWrittenSys            13546048                       # Total written bytes from the system interface side
system.mem_ctrls0.servicedByWrQ                    22                       # Number of DRAM read bursts serviced by the write queue
system.mem_ctrls0.mergedWrBursts                    0                       # Number of DRAM write bursts merged with an existing one
system.mem_ctrls0.neitherReadNorWriteReqs            0                       # Number of requests that are neither read nor write
system.mem_ctrls0.perBankRdBursts::0            20683                       # Per bank write bursts
system.mem_ctrls0.perBankRdBursts::1            21306                       # Per bank write bursts
system.mem_ctrls0.perBankRdBursts::2            20878                       # Per bank write bursts
system.mem_ctrls0.perBankRdBursts::3            21353                       # Per bank write bursts
system.mem_ctrls0.perBankRdBursts::4            20965                       # Per bank write bursts
system.mem_ctrls0.perBankRdBursts::5            21183                       # Per bank write bursts
system.mem_ctrls0.perBankRdBursts::6            21071                       # Per bank write bursts
system.mem_ctrls0.perBankRdBursts::7            21064                       # Per bank write bursts
system.mem_ctrls0.perBankRdBursts::8            20837                       # Per bank write bursts
system.mem_ctrls0.perBankRdBursts::9            21039                       # Per bank write bursts
system.mem_ctrls0.perBankRdBursts::10           20807                       # Per bank write bursts
system.mem_ctrls0.perBankRdBursts::11           21191                       # Per bank write bursts
system.mem_ctrls0.perBankRdBursts::12           20655                       # Per bank write bursts
system.mem_ctrls0.perBankRdBursts::13           20563                       # Per bank write bursts
system.mem_ctrls0.perBankRdBursts::14           20787                       # Per bank write bursts
system.mem_ctrls0.perBankRdBursts::15           20773                       # Per bank write bursts
system.mem_ctrls0.perBankWrBursts::0            13277                       # Per bank write bursts
system.mem_ctrls0.perBankWrBursts::1            13232                       # Per bank write bursts
system.mem_ctrls0.perBankWrBursts::2            13162                       # Per bank write bursts
system.mem_ctrls0.perBankWrBursts::3            13386                       # Per bank write bursts
system.mem_ctrls0.perBankWrBursts::4            13203                       # Per bank write bursts
system.mem_ctrls0.perBankWrBursts::5            13317                       # Per bank write bursts
system.mem_ctrls0.perBankWrBursts::6            13251                       # Per bank write bursts
system.mem_ctrls0.perBankWrBursts::7            13447                       # Per bank write bursts
system.mem_ctrls0.perBankWrBursts::8            13161                       # Per bank write bursts
system.mem_ctrls0.perBankWrBursts::9            13367                       # Per bank write bursts
system.mem_ctrls0.perBankWrBursts::10           13132                       # Per bank write bursts
system.mem_ctrls0.perBankWrBursts::11           13085                       # Per bank write bursts
system.mem_ctrls0.perBankWrBursts::12           13071                       # Per bank write bursts
system.mem_ctrls0.perBankWrBursts::13           13070                       # Per bank write bursts
system.mem_ctrls0.perBankWrBursts::14           13360                       # Per bank write bursts
system.mem_ctrls0.perBankWrBursts::15           13132                       # Per bank write bursts
system.mem_ctrls0.numRdRetry                     8686                       # Number of times read queue was full causing retry
system.mem_ctrls0.numWrRetry                     2772                       # Number of times write queue was full causing retry
system.mem_ctrls0.totGap                 131444779500                       # Total gap between requests
system.mem_ctrls0.readPktSize::0                    0                       # Read request sizes (log2)
system.mem_ctrls0.readPktSize::1                    0                       # Read request sizes (log2)
system.mem_ctrls0.readPktSize::2                    0                       # Read request sizes (log2)
system.mem_ctrls0.readPktSize::3                    0                       # Read request sizes (log2)
system.mem_ctrls0.readPktSize::4                    0                       # Read request sizes (log2)
system.mem_ctrls0.readPktSize::5                    0                       # Read request sizes (log2)
system.mem_ctrls0.readPktSize::6               335177                       # Read request sizes (log2)
system.mem_ctrls0.writePktSize::0                   0                       # Write request sizes (log2)
system.mem_ctrls0.writePktSize::1                   0                       # Write request sizes (log2)
system.mem_ctrls0.writePktSize::2                   0                       # Write request sizes (log2)
system.mem_ctrls0.writePktSize::3                   0                       # Write request sizes (log2)
system.mem_ctrls0.writePktSize::4                   0                       # Write request sizes (log2)
system.mem_ctrls0.writePktSize::5                   0                       # Write request sizes (log2)
system.mem_ctrls0.writePktSize::6              211657                       # Write request sizes (log2)
system.mem_ctrls0.rdQLenPdf::0                 185132                       # What read queue length does an incoming req see
system.mem_ctrls0.rdQLenPdf::1                  16852                       # What read queue length does an incoming req see
system.mem_ctrls0.rdQLenPdf::2                  14283                       # What read queue length does an incoming req see
system.mem_ctrls0.rdQLenPdf::3                  12161                       # What read queue length does an incoming req see
system.mem_ctrls0.rdQLenPdf::4                  11573                       # What read queue length does an incoming req see
system.mem_ctrls0.rdQLenPdf::5                  10911                       # What read queue length does an incoming req see
system.mem_ctrls0.rdQLenPdf::6                  10164                       # What read queue length does an incoming req see
system.mem_ctrls0.rdQLenPdf::7                   9030                       # What read queue length does an incoming req see
system.mem_ctrls0.rdQLenPdf::8                   8063                       # What read queue length does an incoming req see
system.mem_ctrls0.rdQLenPdf::9                   7000                       # What read queue length does an incoming req see
system.mem_ctrls0.rdQLenPdf::10                  6029                       # What read queue length does an incoming req see
system.mem_ctrls0.rdQLenPdf::11                  5161                       # What read queue length does an incoming req see
system.mem_ctrls0.rdQLenPdf::12                  4427                       # What read queue length does an incoming req see
system.mem_ctrls0.rdQLenPdf::13                  3740                       # What read queue length does an incoming req see
system.mem_ctrls0.rdQLenPdf::14                  3226                       # What read queue length does an incoming req see
system.mem_ctrls0.rdQLenPdf::15                  2783                       # What read queue length does an incoming req see
system.mem_ctrls0.rdQLenPdf::16                  2359                       # What read queue length does an incoming req see
system.mem_ctrls0.rdQLenPdf::17                  2020                       # What read queue length does an incoming req see
system.mem_ctrls0.rdQLenPdf::18                  1738                       # What read queue length does an incoming req see
system.mem_ctrls0.rdQLenPdf::19                  1526                       # What read queue length does an incoming req see
system.mem_ctrls0.rdQLenPdf::20                  1287                       # What read queue length does an incoming req see
system.mem_ctrls0.rdQLenPdf::21                  1126                       # What read queue length does an incoming req see
system.mem_ctrls0.rdQLenPdf::22                   954                       # What read queue length does an incoming req see
system.mem_ctrls0.rdQLenPdf::23                   792                       # What read queue length does an incoming req see
system.mem_ctrls0.rdQLenPdf::24                   694                       # What read queue length does an incoming req see
system.mem_ctrls0.rdQLenPdf::25                   577                       # What read queue length does an incoming req see
system.mem_ctrls0.rdQLenPdf::26                   499                       # What read queue length does an incoming req see
system.mem_ctrls0.rdQLenPdf::27                   405                       # What read queue length does an incoming req see
system.mem_ctrls0.rdQLenPdf::28                   370                       # What read queue length does an incoming req see
system.mem_ctrls0.rdQLenPdf::29                   388                       # What read queue length does an incoming req see
system.mem_ctrls0.rdQLenPdf::30                   412                       # What read queue length does an incoming req see
system.mem_ctrls0.rdQLenPdf::31                  9473                       # What read queue length does an incoming req see
system.mem_ctrls0.wrQLenPdf::0                  38695                       # What write queue length does an incoming req see
system.mem_ctrls0.wrQLenPdf::1                  40020                       # What write queue length does an incoming req see
system.mem_ctrls0.wrQLenPdf::2                  40513                       # What write queue length does an incoming req see
system.mem_ctrls0.wrQLenPdf::3                  40642                       # What write queue length does an incoming req see
system.mem_ctrls0.wrQLenPdf::4                  40245                       # What write queue length does an incoming req see
system.mem_ctrls0.wrQLenPdf::5                   3242                       # What write queue length does an incoming req see
system.mem_ctrls0.wrQLenPdf::6                   3094                       # What write queue length does an incoming req see
system.mem_ctrls0.wrQLenPdf::7                   5206                       # What write queue length does an incoming req see
system.mem_ctrls0.bytesPerActivate::samples       153881                       # Bytes accessed per row activation
system.mem_ctrls0.bytesPerActivate::mean   227.413963                       # Bytes accessed per row activation
system.mem_ctrls0.bytesPerActivate::gmean   166.162083                       # Bytes accessed per row activation
system.mem_ctrls0.bytesPerActivate::stdev   191.915579                       # Bytes accessed per row activation
system.mem_ctrls0.bytesPerActivate::0-127        52860     34.35%     34.35% # Bytes accessed per row activation
system.mem_ctrls0.bytesPerActivate::128-255        31599     20.53%     54.89% # Bytes accessed per row activation
system.mem_ctrls0.bytesPerActivate::256-383        52577     34.17%     89.05% # Bytes accessed per row activation
system.mem_ctrls0.bytesPerActivate::384-511         5681      3.69%     92.75% # Bytes accessed per row activation
system.mem_ctrls0.bytesPerActivate::512-639         3908      2.54%     95.28% # Bytes accessed per row activation
system.mem_ctrls0.bytesPerActivate::640-767         2108      1.37%     96.65% # Bytes accessed per row activation
system.mem_ctrls0.bytesPerActivate::768-895         1320      0.86%     97.51% # Bytes accessed per row activation
system.mem_ctrls0.bytesPerActivate::896-1023         1063      0.69%     98.20% # Bytes accessed per row activation
system.mem_ctrls0.bytesPerActivate::1024-1151         2765      1.80%    100.00% # Bytes accessed per row activation
system.mem_ctrls0.bytesPerActivate::total       153881                       # Bytes accessed per row activation
system.mem_ctrls0.rdPerTurnAround::samples        38946                       # Reads before turning the bus around for writes
system.mem_ctrls0.rdPerTurnAround::mean      8.605120                       # Reads before turning the bus around for writes
system.mem_ctrls0.rdPerTurnAround::stdev    23.054384                       # Reads before turning the bus around for writes
system.mem_ctrls0.rdPerTurnAround::0-127        38934     99.97%     99.97% # Reads before turning the bus around for writes
system.mem_ctrls0.rdPerTurnAround::128-255           11      0.03%    100.00% # Reads before turning the bus around for writes
system.mem_ctrls0.rdPerTurnAround::3968-4095            1      0.00%    100.00% # Reads before turning the bus around for writes
system.mem_ctrls0.rdPerTurnAround::total        38946                       # Reads before turning the bus around for writes
system.mem_ctrls0.wrPerTurnAround::samples        38946                       # Writes before turning the bus around for reads
system.mem_ctrls0.wrPerTurnAround::mean      5.434525                       # Writes before turning the bus around for reads
system.mem_ctrls0.wrPerTurnAround::gmean     5.297971                       # Writes before turning the bus around for reads
system.mem_ctrls0.wrPerTurnAround::stdev     1.639930                       # Writes before turning the bus around for reads
system.mem_ctrls0.wrPerTurnAround::4-7          36770     94.41%     94.41% # Writes before turning the bus around for reads
system.mem_ctrls0.wrPerTurnAround::8-11          1304      3.35%     97.76% # Writes before turning the bus around for reads
system.mem_ctrls0.wrPerTurnAround::12-15          436      1.12%     98.88% # Writes before turning the bus around for reads
system.mem_ctrls0.wrPerTurnAround::16-19          436      1.12%    100.00% # Writes before turning the bus around for reads
system.mem_ctrls0.wrPerTurnAround::total        38946                       # Writes before turning the bus around for reads
system.mem_ctrls0.totQLat                 15354543828                       # Total ticks spent queuing
system.mem_ctrls0.totMemAccLat            21638700078                       # Total ticks spent from burst creation until serviced by the DRAM
system.mem_ctrls0.totBusLat                1675775000                       # Total ticks spent in databus transfers
system.mem_ctrls0.avgQLat                    45813.26                       # Average queueing delay per DRAM burst
system.mem_ctrls0.avgBusLat                   5000.00                       # Average bus latency per DRAM burst
system.mem_ctrls0.avgMemAccLat               64563.26                       # Average memory access latency per DRAM burst
system.mem_ctrls0.avgRdBW                      163.19                       # Average DRAM read bandwidth in MiByte/s
system.mem_ctrls0.avgWrBW                      103.05                       # Average achieved write bandwidth in MiByte/s
system.mem_ctrls0.avgRdBWSys                   163.20                       # Average system read bandwidth in MiByte/s
system.mem_ctrls0.avgWrBWSys                   103.05                       # Average system write bandwidth in MiByte/s
system.mem_ctrls0.peakBW                     12800.00                       # Theoretical peak bandwidth in MiByte/s
system.mem_ctrls0.busUtil                        2.08                       # Data bus utilization in percentage
system.mem_ctrls0.busUtilRead                    1.27                       # Data bus utilization in percentage for reads
system.mem_ctrls0.busUtilWrite                   0.81                       # Data bus utilization in percentage for writes
system.mem_ctrls0.avgRdQLen                      1.13                       # Average read queue length when enqueuing
system.mem_ctrls0.avgWrQLen                      2.96                       # Average write queue length when enqueuing
system.mem_ctrls0.readRowHits                  253944                       # Number of row buffer hits during reads
system.mem_ctrls0.writeRowHits                 138973                       # Number of row buffer hits during writes
system.mem_ctrls0.readRowHitRate                75.77                       # Row buffer hit rate for reads
system.mem_ctrls0.writeRowHitRate               65.66                       # Row buffer hit rate for writes
system.mem_ctrls0.avgGap                    240374.19                       # Average gap between requests
system.mem_ctrls0.pageHitRate                   71.86                       # Row buffer hit rate, read and write combined
system.mem_ctrls0.memoryStateTime::IDLE   28041533250                       # Time in different power states
system.mem_ctrls0.memoryStateTime::REF     4389060000                       # Time in different power states
system.mem_ctrls0.memoryStateTime::PRE_PDN            0                       # Time in different power states
system.mem_ctrls0.memoryStateTime::ACT    99009366750                       # Time in different power states
system.mem_ctrls0.memoryStateTime::ACT_PDN            0                       # Time in different power states
system.mem_ctrls0.actEnergy::0              587223000                       # Energy for activate commands per rank (pJ)
system.mem_ctrls0.actEnergy::1              576049320                       # Energy for activate commands per rank (pJ)
system.mem_ctrls0.preEnergy::0              320409375                       # Energy for precharge commands per rank (pJ)
system.mem_ctrls0.preEnergy::1              314312625                       # Energy for precharge commands per rank (pJ)
system.mem_ctrls0.readEnergy::0            1313972400                       # Energy for read commands per rank (pJ)
system.mem_ctrls0.readEnergy::1            1299815400                       # Energy for read commands per rank (pJ)
system.mem_ctrls0.writeEnergy::0            688642560                       # Energy for write commands per rank (pJ)
system.mem_ctrls0.writeEnergy::1            682745760                       # Energy for write commands per rank (pJ)
system.mem_ctrls0.refreshEnergy::0         8585001360                       # Energy for refresh commands per rank (pJ)
system.mem_ctrls0.refreshEnergy::1         8585001360                       # Energy for refresh commands per rank (pJ)
system.mem_ctrls0.actBackEnergy::0        50207000490                       # Energy for active background per rank (pJ)
system.mem_ctrls0.actBackEnergy::1        49773288915                       # Energy for active background per rank (pJ)
system.mem_ctrls0.preBackEnergy::0        34822739250                       # Energy for precharge background per rank (pJ)
system.mem_ctrls0.preBackEnergy::1        35203188000                       # Energy for precharge background per rank (pJ)
system.mem_ctrls0.totalEnergy::0          96524988435                       # Total energy per rank (pJ)
system.mem_ctrls0.totalEnergy::1          96434401380                       # Total energy per rank (pJ)
system.mem_ctrls0.averagePower::0          734.365702                       # Core power per rank (mW)
system.mem_ctrls0.averagePower::1          733.676513                       # Core power per rank (mW)
system.mem_ctrls1.bytes_read::ruby.dir_cntrl1     20798848                       # Number of bytes read from this memory
system.mem_ctrls1.bytes_read::total          20798848                       # Number of bytes read from this memory
system.mem_ctrls1.bytes_written::ruby.dir_cntrl1     12919488                       # Number of bytes written to this memory
system.mem_ctrls1.bytes_written::total       12919488                       # Number of bytes written to this memory
system.mem_ctrls1.num_reads::ruby.dir_cntrl1       324982                       # Number of read requests responded to by this memory
system.mem_ctrls1.num_reads::total             324982                       # Number of read requests responded to by this memory
system.mem_ctrls1.num_writes::ruby.dir_cntrl1       201867                       # Number of write requests responded to by this memory
system.mem_ctrls1.num_writes::total            201867                       # Number of write requests responded to by this memory
system.mem_ctrls1.bw_read::ruby.dir_cntrl1    158231938                       # Total read bandwidth from this memory (bytes/s)
system.mem_ctrls1.bw_read::total            158231938                       # Total read bandwidth from this memory (bytes/s)
system.mem_ctrls1.bw_write::ruby.dir_cntrl1     98287925                       # Write bandwidth from this memory (bytes/s)
system.mem_ctrls1.bw_write::total            98287925                       # Write bandwidth from this memory (bytes/s)
system.mem_ctrls1.bw_total::ruby.dir_cntrl1    256519863                       # Total bandwidth to/from this memory (bytes/s)
system.mem_ctrls1.bw_total::total           256519863                       # Total bandwidth to/from this memory (bytes/s)
system.mem_ctrls1.readReqs                     324982                       # Number of read requests accepted
system.mem_ctrls1.writeReqs                    201867                       # Number of write requests accepted
system.mem_ctrls1.readBursts                   324982                       # Number of DRAM read bursts, including those serviced by the write queue
system.mem_ctrls1.writeBursts                  201867                       # Number of DRAM write bursts, including those merged in the write queue
system.mem_ctrls1.bytesReadDRAM              20797504                       # Total number of bytes read from DRAM
system.mem_ctrls1.bytesReadWrQ                   1344                       # Total number of bytes read from write queue
system.mem_ctrls1.bytesWritten               12919424                       # Total number of bytes written to DRAM
system.mem_ctrls1.bytesReadSys               20798848                       # Total read bytes from the system interface side
system.mem_ctrls1.bytesWrittenSys            12919488                       # Total written bytes from the system interface side
system.mem_ctrls1.servicedByWrQ                    21                       # Number of DRAM read bursts serviced by the write queue
system.mem_ctrls1.mergedWrBursts                    0                       # Number of DRAM write bursts merged with an existing one
system.mem_ctrls1.neitherReadNorWriteReqs            0                       # Number of requests that are neither read nor write
system.mem_ctrls1.perBankRdBursts::0            20060                       # Per bank write bursts
system.mem_ctrls1.perBankRdBursts::1            20698                       # Per bank write bursts
system.mem_ctrls1.perBankRdBursts::2            20233                       # Per bank write bursts
system.mem_ctrls1.perBankRdBursts::3            20682                       # Per bank write bursts
system.mem_ctrls1.perBankRdBursts::4            20375                       # Per bank write bursts
system.mem_ctrls1.perBankRdBursts::5            20541                       # Per bank write bursts
system.mem_ctrls1.perBankRdBursts::6            20436                       # Per bank write bursts
system.mem_ctrls1.perBankRdBursts::7            20518                       # Per bank write bursts
system.mem_ctrls1.perBankRdBursts::8            20185                       # Per bank write bursts
system.mem_ctrls1.perBankRdBursts::9            20382                       # Per bank write bursts
system.mem_ctrls1.perBankRdBursts::10           20151                       # Per bank write bursts
system.mem_ctrls1.perBankRdBursts::11           20570                       # Per bank write bursts
system.mem_ctrls1.perBankRdBursts::12           20016                       # Per bank write bursts
system.mem_ctrls1.perBankRdBursts::13           19896                       # Per bank write bursts
system.mem_ctrls1.perBankRdBursts::14           20085                       # Per bank write bursts
system.mem_ctrls1.perBankRdBursts::15           20133                       # Per bank write bursts
system.mem_ctrls1.perBankWrBursts::0            12669                       # Per bank write bursts
system.mem_ctrls1.perBankWrBursts::1            12641                       # Per bank write bursts
system.mem_ctrls1.perBankWrBursts::2            12558                       # Per bank write bursts
system.mem_ctrls1.perBankWrBursts::3            12781                       # Per bank write bursts
system.mem_ctrls1.perBankWrBursts::4            12597                       # Per bank write bursts
system.mem_ctrls1.perBankWrBursts::5            12718                       # Per bank write bursts
system.mem_ctrls1.perBankWrBursts::6            12630                       # Per bank write bursts
system.mem_ctrls1.perBankWrBursts::7            12827                       # Per bank write bursts
system.mem_ctrls1.perBankWrBursts::8            12546                       # Per bank write bursts
system.mem_ctrls1.perBankWrBursts::9            12745                       # Per bank write bursts
system.mem_ctrls1.perBankWrBursts::10           12521                       # Per bank write bursts
system.mem_ctrls1.perBankWrBursts::11           12472                       # Per bank write bursts
system.mem_ctrls1.perBankWrBursts::12           12471                       # Per bank write bursts
system.mem_ctrls1.perBankWrBursts::13           12461                       # Per bank write bursts
system.mem_ctrls1.perBankWrBursts::14           12703                       # Per bank write bursts
system.mem_ctrls1.perBankWrBursts::15           12526                       # Per bank write bursts
system.mem_ctrls1.numRdRetry                     3966                       # Number of times read queue was full causing retry
system.mem_ctrls1.numWrRetry                     2003                       # Number of times write queue was full causing retry
system.mem_ctrls1.totGap                 131444498000                       # Total gap between requests
system.mem_ctrls1.readPktSize::0                    0                       # Read request sizes (log2)
system.mem_ctrls1.readPktSize::1                    0                       # Read request sizes (log2)
system.mem_ctrls1.readPktSize::2                    0                       # Read request sizes (log2)
system.mem_ctrls1.readPktSize::3                    0                       # Read request sizes (log2)
system.mem_ctrls1.readPktSize::4                    0                       # Read request sizes (log2)
system.mem_ctrls1.readPktSize::5                    0                       # Read request sizes (log2)
system.mem_ctrls1.readPktSize::6               324982                       # Read request sizes (log2)
system.mem_ctrls1.writePktSize::0                   0                       # Write request sizes (log2)
system.mem_ctrls1.writePktSize::1                   0                       # Write request sizes (log2)
system.mem_ctrls1.writePktSize::2                   0                       # Write request sizes (log2)
system.mem_ctrls1.writePktSize::3                   0                       # Write request sizes (log2)
system.mem_ctrls1.writePktSize::4                   0                       # Write request sizes (log2)
system.mem_ctrls1.writePktSize::5                   0                       # Write request sizes (log2)
system.mem_ctrls1.writePktSize::6              201867                       # Write request sizes (log2)
system.mem_ctrls1.rdQLenPdf::0                 181222                       # What read queue length does an incoming req see
system.mem_ctrls1.rdQLenPdf::1                  14436                       # What read queue length does an incoming req see
system.mem_ctrls1.rdQLenPdf::2                  14240                       # What read queue length does an incoming req see
system.mem_ctrls1.rdQLenPdf::3                  13193                       # What read queue length does an incoming req see
system.mem_ctrls1.rdQLenPdf::4                  12283                       # What read queue length does an incoming req see
system.mem_ctrls1.rdQLenPdf::5                  11244                       # What read queue length does an incoming req see
system.mem_ctrls1.rdQLenPdf::6                   9989                       # What read queue length does an incoming req see
system.mem_ctrls1.rdQLenPdf::7                   8691                       # What read queue length does an incoming req see
system.mem_ctrls1.rdQLenPdf::8                   7796                       # What read queue length does an incoming req see
system.mem_ctrls1.rdQLenPdf::9                   7016                       # What read queue length does an incoming req see
system.mem_ctrls1.rdQLenPdf::10                  5998                       # What read queue length does an incoming req see
system.mem_ctrls1.rdQLenPdf::11                  5194                       # What read queue length does an incoming req see
system.mem_ctrls1.rdQLenPdf::12                  4306                       # What read queue length does an incoming req see
system.mem_ctrls1.rdQLenPdf::13                  3705                       # What read queue length does an incoming req see
system.mem_ctrls1.rdQLenPdf::14                  3134                       # What read queue length does an incoming req see
system.mem_ctrls1.rdQLenPdf::15                  2602                       # What read queue length does an incoming req see
system.mem_ctrls1.rdQLenPdf::16                  2359                       # What read queue length does an incoming req see
system.mem_ctrls1.rdQLenPdf::17                  1918                       # What read queue length does an incoming req see
system.mem_ctrls1.rdQLenPdf::18                  1650                       # What read queue length does an incoming req see
system.mem_ctrls1.rdQLenPdf::19                  1394                       # What read queue length does an incoming req see
system.mem_ctrls1.rdQLenPdf::20                  1193                       # What read queue length does an incoming req see
system.mem_ctrls1.rdQLenPdf::21                  1003                       # What read queue length does an incoming req see
system.mem_ctrls1.rdQLenPdf::22                   925                       # What read queue length does an incoming req see
system.mem_ctrls1.rdQLenPdf::23                   780                       # What read queue length does an incoming req see
system.mem_ctrls1.rdQLenPdf::24                   668                       # What read queue length does an incoming req see
system.mem_ctrls1.rdQLenPdf::25                   605                       # What read queue length does an incoming req see
system.mem_ctrls1.rdQLenPdf::26                   577                       # What read queue length does an incoming req see
system.mem_ctrls1.rdQLenPdf::27                   564                       # What read queue length does an incoming req see
system.mem_ctrls1.rdQLenPdf::28                   547                       # What read queue length does an incoming req see
system.mem_ctrls1.rdQLenPdf::29                   537                       # What read queue length does an incoming req see
system.mem_ctrls1.rdQLenPdf::30                   558                       # What read queue length does an incoming req see
system.mem_ctrls1.rdQLenPdf::31                  4634                       # What read queue length does an incoming req see
system.mem_ctrls1.wrQLenPdf::0                  36872                       # What write queue length does an incoming req see
system.mem_ctrls1.wrQLenPdf::1                  38163                       # What write queue length does an incoming req see
system.mem_ctrls1.wrQLenPdf::2                  38533                       # What write queue length does an incoming req see
system.mem_ctrls1.wrQLenPdf::3                  38754                       # What write queue length does an incoming req see
system.mem_ctrls1.wrQLenPdf::4                  38841                       # What write queue length does an incoming req see
system.mem_ctrls1.wrQLenPdf::5                   3480                       # What write queue length does an incoming req see
system.mem_ctrls1.wrQLenPdf::6                   3017                       # What write queue length does an incoming req see
system.mem_ctrls1.wrQLenPdf::7                   4207                       # What write queue length does an incoming req see
system.mem_ctrls1.bytesPerActivate::samples       126906                       # Bytes accessed per row activation
system.mem_ctrls1.bytesPerActivate::mean   265.677210                       # Bytes accessed per row activation
system.mem_ctrls1.bytesPerActivate::gmean   204.445410                       # Bytes accessed per row activation
system.mem_ctrls1.bytesPerActivate::stdev   200.809208                       # Bytes accessed per row activation
system.mem_ctrls1.bytesPerActivate::0-127        26168     20.62%     20.62% # Bytes accessed per row activation
system.mem_ctrls1.bytesPerActivate::128-255        30462     24.00%     44.62% # Bytes accessed per row activation
system.mem_ctrls1.bytesPerActivate::256-383        52413     41.30%     85.92% # Bytes accessed per row activation
system.mem_ctrls1.bytesPerActivate::384-511         5212      4.11%     90.03% # Bytes accessed per row activation
system.mem_ctrls1.bytesPerActivate::512-639         4502      3.55%     93.58% # Bytes accessed per row activation
system.mem_ctrls1.bytesPerActivate::640-767         2256      1.78%     95.36% # Bytes accessed per row activation
system.mem_ctrls1.bytesPerActivate::768-895         1484      1.17%     96.53% # Bytes accessed per row activation
system.mem_ctrls1.bytesPerActivate::896-1023         1122      0.88%     97.41% # Bytes accessed per row activation
system.mem_ctrls1.bytesPerActivate::1024-1151         3287      2.59%    100.00% # Bytes accessed per row activation
system.mem_ctrls1.bytesPerActivate::total       126906                       # Bytes accessed per row activation
system.mem_ctrls1.rdPerTurnAround::samples        37119                       # Reads before turning the bus around for writes
system.mem_ctrls1.rdPerTurnAround::mean      8.754465                       # Reads before turning the bus around for writes
system.mem_ctrls1.rdPerTurnAround::stdev    20.368654                       # Reads before turning the bus around for writes
system.mem_ctrls1.rdPerTurnAround::0-127        37088     99.92%     99.92% # Reads before turning the bus around for writes
system.mem_ctrls1.rdPerTurnAround::128-255           29      0.08%     99.99% # Reads before turning the bus around for writes
system.mem_ctrls1.rdPerTurnAround::1152-1279            1      0.00%    100.00% # Reads before turning the bus around for writes
system.mem_ctrls1.rdPerTurnAround::2816-2943            1      0.00%    100.00% # Reads before turning the bus around for writes
system.mem_ctrls1.rdPerTurnAround::total        37119                       # Reads before turning the bus around for writes
system.mem_ctrls1.wrPerTurnAround::samples        37119                       # Writes before turning the bus around for reads
system.mem_ctrls1.wrPerTurnAround::mean      5.438347                       # Writes before turning the bus around for reads
system.mem_ctrls1.wrPerTurnAround::gmean     5.299022                       # Writes before turning the bus around for reads
system.mem_ctrls1.wrPerTurnAround::stdev     1.640428                       # Writes before turning the bus around for reads
system.mem_ctrls1.wrPerTurnAround::4-7          34742     93.60%     93.60% # Writes before turning the bus around for reads
system.mem_ctrls1.wrPerTurnAround::8-11          1534      4.13%     97.73% # Writes before turning the bus around for reads
system.mem_ctrls1.wrPerTurnAround::12-15          488      1.31%     99.04% # Writes before turning the bus around for reads
system.mem_ctrls1.wrPerTurnAround::16-19          355      0.96%    100.00% # Writes before turning the bus around for reads
system.mem_ctrls1.wrPerTurnAround::total        37119                       # Writes before turning the bus around for reads
system.mem_ctrls1.totQLat                 13236090800                       # Total ticks spent queuing
system.mem_ctrls1.totMemAccLat            19329109550                       # Total ticks spent from burst creation until serviced by the DRAM
system.mem_ctrls1.totBusLat                1624805000                       # Total ticks spent in databus transfers
system.mem_ctrls1.avgQLat                    40731.32                       # Average queueing delay per DRAM burst
system.mem_ctrls1.avgBusLat                   5000.00                       # Average bus latency per DRAM burst
system.mem_ctrls1.avgMemAccLat               59481.32                       # Average memory access latency per DRAM burst
system.mem_ctrls1.avgRdBW                      158.22                       # Average DRAM read bandwidth in MiByte/s
system.mem_ctrls1.avgWrBW                       98.29                       # Average achieved write bandwidth in MiByte/s
system.mem_ctrls1.avgRdBWSys                   158.23                       # Average system read bandwidth in MiByte/s
system.mem_ctrls1.avgWrBWSys                    98.29                       # Average system write bandwidth in MiByte/s
system.mem_ctrls1.peakBW                     12800.00                       # Theoretical peak bandwidth in MiByte/s
system.mem_ctrls1.busUtil                        2.00                       # Data bus utilization in percentage
system.mem_ctrls1.busUtilRead                    1.24                       # Data bus utilization in percentage for reads
system.mem_ctrls1.busUtilWrite                   0.77                       # Data bus utilization in percentage for writes
system.mem_ctrls1.avgRdQLen                      1.12                       # Average read queue length when enqueuing
system.mem_ctrls1.avgWrQLen                      2.97                       # Average write queue length when enqueuing
system.mem_ctrls1.readRowHits                  255035                       # Number of row buffer hits during reads
system.mem_ctrls1.writeRowHits                 144879                       # Number of row buffer hits during writes
system.mem_ctrls1.readRowHitRate                78.48                       # Row buffer hit rate for reads
system.mem_ctrls1.writeRowHitRate               71.77                       # Row buffer hit rate for writes
system.mem_ctrls1.avgGap                    249491.79                       # Average gap between requests
system.mem_ctrls1.pageHitRate                   75.91                       # Row buffer hit rate, read and write combined
system.mem_ctrls1.memoryStateTime::IDLE   28549207000                       # Time in different power states
system.mem_ctrls1.memoryStateTime::REF     4389060000                       # Time in different power states
system.mem_ctrls1.memoryStateTime::PRE_PDN            0                       # Time in different power states
system.mem_ctrls1.memoryStateTime::ACT    98501693000                       # Time in different power states
system.mem_ctrls1.memoryStateTime::ACT_PDN            0                       # Time in different power states
system.mem_ctrls1.actEnergy::0              486236520                       # Energy for activate commands per rank (pJ)
system.mem_ctrls1.actEnergy::1              473104800                       # Energy for activate commands per rank (pJ)
system.mem_ctrls1.preEnergy::0              265307625                       # Energy for precharge commands per rank (pJ)
system.mem_ctrls1.preEnergy::1              258142500                       # Energy for precharge commands per rank (pJ)
system.mem_ctrls1.readEnergy::0            1275292200                       # Energy for read commands per rank (pJ)
system.mem_ctrls1.readEnergy::1            1259013600                       # Energy for read commands per rank (pJ)
system.mem_ctrls1.writeEnergy::0            657175680                       # Energy for write commands per rank (pJ)
system.mem_ctrls1.writeEnergy::1            650766960                       # Energy for write commands per rank (pJ)
system.mem_ctrls1.refreshEnergy::0         8585001360                       # Energy for refresh commands per rank (pJ)
system.mem_ctrls1.refreshEnergy::1         8585001360                       # Energy for refresh commands per rank (pJ)
system.mem_ctrls1.actBackEnergy::0        49645117575                       # Energy for active background per rank (pJ)
system.mem_ctrls1.actBackEnergy::1        48704639805                       # Energy for active background per rank (pJ)
system.mem_ctrls1.preBackEnergy::0        35315619000                       # Energy for precharge background per rank (pJ)
system.mem_ctrls1.preBackEnergy::1        36140599500                       # Energy for precharge background per rank (pJ)
system.mem_ctrls1.totalEnergy::0          96229749960                       # Total energy per rank (pJ)
system.mem_ctrls1.totalEnergy::1          96071268525                       # Total energy per rank (pJ)
system.mem_ctrls1.averagePower::0          732.119517                       # Core power per rank (mW)
system.mem_ctrls1.averagePower::1          730.913784                       # Core power per rank (mW)
system.mem_ctrls2.bytes_read::ruby.dir_cntrl2     20797184                       # Number of bytes read from this memory
system.mem_ctrls2.bytes_read::total          20797184                       # Number of bytes read from this memory
system.mem_ctrls2.bytes_written::ruby.dir_cntrl2     12920000                       # Number of bytes written to this memory
system.mem_ctrls2.bytes_written::total       12920000                       # Number of bytes written to this memory
system.mem_ctrls2.num_reads::ruby.dir_cntrl2       324956                       # Number of read requests responded to by this memory
system.mem_ctrls2.num_reads::total             324956                       # Number of read requests responded to by this memory
system.mem_ctrls2.num_writes::ruby.dir_cntrl2       201875                       # Number of write requests responded to by this memory
system.mem_ctrls2.num_writes::total            201875                       # Number of write requests responded to by this memory
system.mem_ctrls2.bw_read::ruby.dir_cntrl2    158219278                       # Total read bandwidth from this memory (bytes/s)
system.mem_ctrls2.bw_read::total            158219278                       # Total read bandwidth from this memory (bytes/s)
system.mem_ctrls2.bw_write::ruby.dir_cntrl2     98291821                       # Write bandwidth from this memory (bytes/s)
system.mem_ctrls2.bw_write::total            98291821                       # Write bandwidth from this memory (bytes/s)
system.mem_ctrls2.bw_total::ruby.dir_cntrl2    256511099                       # Total bandwidth to/from this memory (bytes/s)
system.mem_ctrls2.bw_total::total           256511099                       # Total bandwidth to/from this memory (bytes/s)
system.mem_ctrls2.readReqs                     324956                       # Number of read requests accepted
system.mem_ctrls2.writeReqs                    201875                       # Number of write requests accepted
system.mem_ctrls2.readBursts                   324956                       # Number of DRAM read bursts, including those serviced by the write queue
system.mem_ctrls2.writeBursts                  201875                       # Number of DRAM write bursts, including those merged in the write queue
system.mem_ctrls2.bytesReadDRAM              20796160                       # Total number of bytes read from DRAM
system.mem_ctrls2.bytesReadWrQ                   1024                       # Total number of bytes read from write queue
system.mem_ctrls2.bytesWritten               12919936                       # Total number of bytes written to DRAM
system.mem_ctrls2.bytesReadSys               20797184                       # Total read bytes from the system interface side
system.mem_ctrls2.bytesWrittenSys            12920000                       # Total written bytes from the system interface side
system.mem_ctrls2.servicedByWrQ                    16                       # Number of DRAM read bursts serviced by the write queue
system.mem_ctrls2.mergedWrBursts                    0                       # Number of DRAM write bursts merged with an existing one
system.mem_ctrls2.neitherReadNorWriteReqs            0                       # Number of requests that are neither read nor write
system.mem_ctrls2.perBankRdBursts::0            20056                       # Per bank write bursts
system.mem_ctrls2.perBankRdBursts::1            20679                       # Per bank write bursts
system.mem_ctrls2.perBankRdBursts::2            20244                       # Per bank write bursts
system.mem_ctrls2.perBankRdBursts::3            20731                       # Per bank write bursts
system.mem_ctrls2.perBankRdBursts::4            20382                       # Per bank write bursts
system.mem_ctrls2.perBankRdBursts::5            20524                       # Per bank write bursts
system.mem_ctrls2.perBankRdBursts::6            20411                       # Per bank write bursts
system.mem_ctrls2.perBankRdBursts::7            20492                       # Per bank write bursts
system.mem_ctrls2.perBankRdBursts::8            20154                       # Per bank write bursts
system.mem_ctrls2.perBankRdBursts::9            20392                       # Per bank write bursts
system.mem_ctrls2.perBankRdBursts::10           20159                       # Per bank write bursts
system.mem_ctrls2.perBankRdBursts::11           20587                       # Per bank write bursts
system.mem_ctrls2.perBankRdBursts::12           20034                       # Per bank write bursts
system.mem_ctrls2.perBankRdBursts::13           19854                       # Per bank write bursts
system.mem_ctrls2.perBankRdBursts::14           20072                       # Per bank write bursts
system.mem_ctrls2.perBankRdBursts::15           20169                       # Per bank write bursts
system.mem_ctrls2.perBankWrBursts::0            12663                       # Per bank write bursts
system.mem_ctrls2.perBankWrBursts::1            12640                       # Per bank write bursts
system.mem_ctrls2.perBankWrBursts::2            12554                       # Per bank write bursts
system.mem_ctrls2.perBankWrBursts::3            12789                       # Per bank write bursts
system.mem_ctrls2.perBankWrBursts::4            12597                       # Per bank write bursts
system.mem_ctrls2.perBankWrBursts::5            12702                       # Per bank write bursts
system.mem_ctrls2.perBankWrBursts::6            12638                       # Per bank write bursts
system.mem_ctrls2.perBankWrBursts::7            12826                       # Per bank write bursts
system.mem_ctrls2.perBankWrBursts::8            12530                       # Per bank write bursts
system.mem_ctrls2.perBankWrBursts::9            12751                       # Per bank write bursts
system.mem_ctrls2.perBankWrBursts::10           12518                       # Per bank write bursts
system.mem_ctrls2.perBankWrBursts::11           12486                       # Per bank write bursts
system.mem_ctrls2.perBankWrBursts::12           12478                       # Per bank write bursts
system.mem_ctrls2.perBankWrBursts::13           12455                       # Per bank write bursts
system.mem_ctrls2.perBankWrBursts::14           12708                       # Per bank write bursts
system.mem_ctrls2.perBankWrBursts::15           12539                       # Per bank write bursts
system.mem_ctrls2.numRdRetry                     4290                       # Number of times read queue was full causing retry
system.mem_ctrls2.numWrRetry                     1986                       # Number of times write queue was full causing retry
system.mem_ctrls2.totGap                 131445232000                       # Total gap between requests
system.mem_ctrls2.readPktSize::0                    0                       # Read request sizes (log2)
system.mem_ctrls2.readPktSize::1                    0                       # Read request sizes (log2)
system.mem_ctrls2.readPktSize::2                    0                       # Read request sizes (log2)
system.mem_ctrls2.readPktSize::3                    0                       # Read request sizes (log2)
system.mem_ctrls2.readPktSize::4                    0                       # Read request sizes (log2)
system.mem_ctrls2.readPktSize::5                    0                       # Read request sizes (log2)
system.mem_ctrls2.readPktSize::6               324956                       # Read request sizes (log2)
system.mem_ctrls2.writePktSize::0                   0                       # Write request sizes (log2)
system.mem_ctrls2.writePktSize::1                   0                       # Write request sizes (log2)
system.mem_ctrls2.writePktSize::2                   0                       # Write request sizes (log2)
system.mem_ctrls2.writePktSize::3                   0                       # Write request sizes (log2)
system.mem_ctrls2.writePktSize::4                   0                       # Write request sizes (log2)
system.mem_ctrls2.writePktSize::5                   0                       # Write request sizes (log2)
system.mem_ctrls2.writePktSize::6              201875                       # Write request sizes (log2)
system.mem_ctrls2.rdQLenPdf::0                 181188                       # What read queue length does an incoming req see
system.mem_ctrls2.rdQLenPdf::1                  14468                       # What read queue length does an incoming req see
system.mem_ctrls2.rdQLenPdf::2                  13966                       # What read queue length does an incoming req see
system.mem_ctrls2.rdQLenPdf::3                  12994                       # What read queue length does an incoming req see
system.mem_ctrls2.rdQLenPdf::4                  12323                       # What read queue length does an incoming req see
system.mem_ctrls2.rdQLenPdf::5                  11456                       # What read queue length does an incoming req see
system.mem_ctrls2.rdQLenPdf::6                  10299                       # What read queue length does an incoming req see
system.mem_ctrls2.rdQLenPdf::7                   9257                       # What read queue length does an incoming req see
system.mem_ctrls2.rdQLenPdf::8                   8027                       # What read queue length does an incoming req see
system.mem_ctrls2.rdQLenPdf::9                   6954                       # What read queue length does an incoming req see
system.mem_ctrls2.rdQLenPdf::10                  6060                       # What read queue length does an incoming req see
system.mem_ctrls2.rdQLenPdf::11                  5094                       # What read queue length does an incoming req see
system.mem_ctrls2.rdQLenPdf::12                  4264                       # What read queue length does an incoming req see
system.mem_ctrls2.rdQLenPdf::13                  3765                       # What read queue length does an incoming req see
system.mem_ctrls2.rdQLenPdf::14                  2984                       # What read queue length does an incoming req see
system.mem_ctrls2.rdQLenPdf::15                  2402                       # What read queue length does an incoming req see
system.mem_ctrls2.rdQLenPdf::16                  2174                       # What read queue length does an incoming req see
system.mem_ctrls2.rdQLenPdf::17                  1846                       # What read queue length does an incoming req see
system.mem_ctrls2.rdQLenPdf::18                  1548                       # What read queue length does an incoming req see
system.mem_ctrls2.rdQLenPdf::19                  1343                       # What read queue length does an incoming req see
system.mem_ctrls2.rdQLenPdf::20                  1160                       # What read queue length does an incoming req see
system.mem_ctrls2.rdQLenPdf::21                   961                       # What read queue length does an incoming req see
system.mem_ctrls2.rdQLenPdf::22                   878                       # What read queue length does an incoming req see
system.mem_ctrls2.rdQLenPdf::23                   751                       # What read queue length does an incoming req see
system.mem_ctrls2.rdQLenPdf::24                   657                       # What read queue length does an incoming req see
system.mem_ctrls2.rdQLenPdf::25                   593                       # What read queue length does an incoming req see
system.mem_ctrls2.rdQLenPdf::26                   574                       # What read queue length does an incoming req see
system.mem_ctrls2.rdQLenPdf::27                   538                       # What read queue length does an incoming req see
system.mem_ctrls2.rdQLenPdf::28                   482                       # What read queue length does an incoming req see
system.mem_ctrls2.rdQLenPdf::29                   487                       # What read queue length does an incoming req see
system.mem_ctrls2.rdQLenPdf::30                   537                       # What read queue length does an incoming req see
system.mem_ctrls2.rdQLenPdf::31                  4910                       # What read queue length does an incoming req see
system.mem_ctrls2.wrQLenPdf::0                  36855                       # What write queue length does an incoming req see
system.mem_ctrls2.wrQLenPdf::1                  38174                       # What write queue length does an incoming req see
system.mem_ctrls2.wrQLenPdf::2                  38568                       # What write queue length does an incoming req see
system.mem_ctrls2.wrQLenPdf::3                  38679                       # What write queue length does an incoming req see
system.mem_ctrls2.wrQLenPdf::4                  38759                       # What write queue length does an incoming req see
system.mem_ctrls2.wrQLenPdf::5                   3528                       # What write queue length does an incoming req see
system.mem_ctrls2.wrQLenPdf::6                   3203                       # What write queue length does an incoming req see
system.mem_ctrls2.wrQLenPdf::7                   4109                       # What write queue length does an incoming req see
system.mem_ctrls2.bytesPerActivate::samples       126658                       # Bytes accessed per row activation
system.mem_ctrls2.bytesPerActivate::mean   266.190339                       # Bytes accessed per row activation
system.mem_ctrls2.bytesPerActivate::gmean   204.960949                       # Bytes accessed per row activation
system.mem_ctrls2.bytesPerActivate::stdev   200.389242                       # Bytes accessed per row activation
system.mem_ctrls2.bytesPerActivate::0-127        26296     20.76%     20.76% # Bytes accessed per row activation
system.mem_ctrls2.bytesPerActivate::128-255        29374     23.19%     43.95% # Bytes accessed per row activation
system.mem_ctrls2.bytesPerActivate::256-383        53203     42.01%     85.96% # Bytes accessed per row activation
system.mem_ctrls2.bytesPerActivate::384-511         5207      4.11%     90.07% # Bytes accessed per row activation
system.mem_ctrls2.bytesPerActivate::512-639         4533      3.58%     93.65% # Bytes accessed per row activation
system.mem_ctrls2.bytesPerActivate::640-767         2184      1.72%     95.37% # Bytes accessed per row activation
system.mem_ctrls2.bytesPerActivate::768-895         1486      1.17%     96.55% # Bytes accessed per row activation
system.mem_ctrls2.bytesPerActivate::896-1023         1073      0.85%     97.39% # Bytes accessed per row activation
system.mem_ctrls2.bytesPerActivate::1024-1151         3302      2.61%    100.00% # Bytes accessed per row activation
system.mem_ctrls2.bytesPerActivate::total       126658                       # Bytes accessed per row activation
system.mem_ctrls2.rdPerTurnAround::samples        37094                       # Reads before turning the bus around for writes
system.mem_ctrls2.rdPerTurnAround::mean      8.759719                       # Reads before turning the bus around for writes
system.mem_ctrls2.rdPerTurnAround::stdev    20.430811                       # Reads before turning the bus around for writes
system.mem_ctrls2.rdPerTurnAround::0-127        37062     99.91%     99.91% # Reads before turning the bus around for writes
system.mem_ctrls2.rdPerTurnAround::128-255           30      0.08%     99.99% # Reads before turning the bus around for writes
system.mem_ctrls2.rdPerTurnAround::1152-1279            1      0.00%    100.00% # Reads before turning the bus around for writes
system.mem_ctrls2.rdPerTurnAround::2816-2943            1      0.00%    100.00% # Reads before turning the bus around for writes
system.mem_ctrls2.rdPerTurnAround::total        37094                       # Reads before turning the bus around for writes
system.mem_ctrls2.wrPerTurnAround::samples        37094                       # Writes before turning the bus around for reads
system.mem_ctrls2.wrPerTurnAround::mean      5.442228                       # Writes before turning the bus around for reads
system.mem_ctrls2.wrPerTurnAround::gmean     5.300078                       # Writes before turning the bus around for reads
system.mem_ctrls2.wrPerTurnAround::stdev     1.661398                       # Writes before turning the bus around for reads
system.mem_ctrls2.wrPerTurnAround::4-7          34708     93.57%     93.57% # Writes before turning the bus around for reads
system.mem_ctrls2.wrPerTurnAround::8-11          1489      4.01%     97.58% # Writes before turning the bus around for reads
system.mem_ctrls2.wrPerTurnAround::12-15          538      1.45%     99.03% # Writes before turning the bus around for reads
system.mem_ctrls2.wrPerTurnAround::16-19          359      0.97%    100.00% # Writes before turning the bus around for reads
system.mem_ctrls2.wrPerTurnAround::total        37094                       # Writes before turning the bus around for reads
system.mem_ctrls2.totQLat                 13211474482                       # Total ticks spent queuing
system.mem_ctrls2.totMemAccLat            19304099482                       # Total ticks spent from burst creation until serviced by the DRAM
system.mem_ctrls2.totBusLat                1624700000                       # Total ticks spent in databus transfers
system.mem_ctrls2.avgQLat                    40658.20                       # Average queueing delay per DRAM burst
system.mem_ctrls2.avgBusLat                   5000.00                       # Average bus latency per DRAM burst
system.mem_ctrls2.avgMemAccLat               59408.20                       # Average memory access latency per DRAM burst
system.mem_ctrls2.avgRdBW                      158.21                       # Average DRAM read bandwidth in MiByte/s
system.mem_ctrls2.avgWrBW                       98.29                       # Average achieved write bandwidth in MiByte/s
system.mem_ctrls2.avgRdBWSys                   158.22                       # Average system read bandwidth in MiByte/s
system.mem_ctrls2.avgWrBWSys                    98.29                       # Average system write bandwidth in MiByte/s
system.mem_ctrls2.peakBW                     12800.00                       # Theoretical peak bandwidth in MiByte/s
system.mem_ctrls2.busUtil                        2.00                       # Data bus utilization in percentage
system.mem_ctrls2.busUtilRead                    1.24                       # Data bus utilization in percentage for reads
system.mem_ctrls2.busUtilWrite                   0.77                       # Data bus utilization in percentage for writes
system.mem_ctrls2.avgRdQLen                      1.12                       # Average read queue length when enqueuing
system.mem_ctrls2.avgWrQLen                      2.95                       # Average write queue length when enqueuing
system.mem_ctrls2.readRowHits                  254952                       # Number of row buffer hits during reads
system.mem_ctrls2.writeRowHits                 145197                       # Number of row buffer hits during writes
system.mem_ctrls2.readRowHitRate                78.46                       # Row buffer hit rate for reads
system.mem_ctrls2.writeRowHitRate               71.92                       # Row buffer hit rate for writes
system.mem_ctrls2.avgGap                    249501.70                       # Average gap between requests
system.mem_ctrls2.pageHitRate                   75.96                       # Row buffer hit rate, read and write combined
system.mem_ctrls2.memoryStateTime::IDLE   28403902500                       # Time in different power states
system.mem_ctrls2.memoryStateTime::REF     4389060000                       # Time in different power states
system.mem_ctrls2.memoryStateTime::PRE_PDN            0                       # Time in different power states
system.mem_ctrls2.memoryStateTime::ACT    98646997500                       # Time in different power states
system.mem_ctrls2.memoryStateTime::ACT_PDN            0                       # Time in different power states
system.mem_ctrls2.actEnergy::0              485767800                       # Energy for activate commands per rank (pJ)
system.mem_ctrls2.actEnergy::1              471698640                       # Energy for activate commands per rank (pJ)
system.mem_ctrls2.preEnergy::0              265051875                       # Energy for precharge commands per rank (pJ)
system.mem_ctrls2.preEnergy::1              257375250                       # Energy for precharge commands per rank (pJ)
system.mem_ctrls2.readEnergy::0            1275097200                       # Energy for read commands per rank (pJ)
system.mem_ctrls2.readEnergy::1            1259037000                       # Energy for read commands per rank (pJ)
system.mem_ctrls2.writeEnergy::0            657097920                       # Energy for write commands per rank (pJ)
system.mem_ctrls2.writeEnergy::1            650896560                       # Energy for write commands per rank (pJ)
system.mem_ctrls2.refreshEnergy::0         8585001360                       # Energy for refresh commands per rank (pJ)
system.mem_ctrls2.refreshEnergy::1         8585001360                       # Energy for refresh commands per rank (pJ)
system.mem_ctrls2.actBackEnergy::0        49376491110                       # Energy for active background per rank (pJ)
system.mem_ctrls2.actBackEnergy::1        48448430505                       # Energy for active background per rank (pJ)
system.mem_ctrls2.preBackEnergy::0        35551256250                       # Energy for precharge background per rank (pJ)
system.mem_ctrls2.preBackEnergy::1        36365344500                       # Energy for precharge background per rank (pJ)
system.mem_ctrls2.totalEnergy::0          96195763515                       # Total energy per rank (pJ)
system.mem_ctrls2.totalEnergy::1          96037783815                       # Total energy per rank (pJ)
system.mem_ctrls2.averagePower::0          731.860947                       # Core power per rank (mW)
system.mem_ctrls2.averagePower::1          730.659031                       # Core power per rank (mW)
system.mem_ctrls3.bytes_read::ruby.dir_cntrl3     20775168                       # Number of bytes read from this memory
system.mem_ctrls3.bytes_read::total          20775168                       # Number of bytes read from this memory
system.mem_ctrls3.bytes_written::ruby.dir_cntrl3     12918848                       # Number of bytes written to this memory
system.mem_ctrls3.bytes_written::total       12918848                       # Number of bytes written to this memory
system.mem_ctrls3.num_reads::ruby.dir_cntrl3       324612                       # Number of read requests responded to by this memory
system.mem_ctrls3.num_reads::total             324612                       # Number of read requests responded to by this memory
system.mem_ctrls3.num_writes::ruby.dir_cntrl3       201857                       # Number of write requests responded to by this memory
system.mem_ctrls3.num_writes::total            201857                       # Number of write requests responded to by this memory
system.mem_ctrls3.bw_read::ruby.dir_cntrl3    158051787                       # Total read bandwidth from this memory (bytes/s)
system.mem_ctrls3.bw_read::total            158051787                       # Total read bandwidth from this memory (bytes/s)
system.mem_ctrls3.bw_write::ruby.dir_cntrl3     98283056                       # Write bandwidth from this memory (bytes/s)
system.mem_ctrls3.bw_write::total            98283056                       # Write bandwidth from this memory (bytes/s)
system.mem_ctrls3.bw_total::ruby.dir_cntrl3    256334843                       # Total bandwidth to/from this memory (bytes/s)
system.mem_ctrls3.bw_total::total           256334843                       # Total bandwidth to/from this memory (bytes/s)
system.mem_ctrls3.readReqs                     324612                       # Number of read requests accepted
system.mem_ctrls3.writeReqs                    201857                       # Number of write requests accepted
system.mem_ctrls3.readBursts                   324612                       # Number of DRAM read bursts, including those serviced by the write queue
system.mem_ctrls3.writeBursts                  201857                       # Number of DRAM write bursts, including those merged in the write queue
system.mem_ctrls3.bytesReadDRAM              20774336                       # Total number of bytes read from DRAM
system.mem_ctrls3.bytesReadWrQ                    832                       # Total number of bytes read from write queue
system.mem_ctrls3.bytesWritten               12918656                       # Total number of bytes written to DRAM
system.mem_ctrls3.bytesReadSys               20775168                       # Total read bytes from the system interface side
system.mem_ctrls3.bytesWrittenSys            12918848                       # Total written bytes from the system interface side
system.mem_ctrls3.servicedByWrQ                    13                       # Number of DRAM read bursts serviced by the write queue
system.mem_ctrls3.mergedWrBursts                    0                       # Number of DRAM write bursts merged with an existing one
system.mem_ctrls3.neitherReadNorWriteReqs            0                       # Number of requests that are neither read nor write
system.mem_ctrls3.perBankRdBursts::0            20050                       # Per bank write bursts
system.mem_ctrls3.perBankRdBursts::1            20650                       # Per bank write bursts
system.mem_ctrls3.perBankRdBursts::2            20160                       # Per bank write bursts
system.mem_ctrls3.perBankRdBursts::3            20703                       # Per bank write bursts
system.mem_ctrls3.perBankRdBursts::4            20311                       # Per bank write bursts
system.mem_ctrls3.perBankRdBursts::5            20517                       # Per bank write bursts
system.mem_ctrls3.perBankRdBursts::6            20421                       # Per bank write bursts
system.mem_ctrls3.perBankRdBursts::7            20470                       # Per bank write bursts
system.mem_ctrls3.perBankRdBursts::8            20145                       # Per bank write bursts
system.mem_ctrls3.perBankRdBursts::9            20381                       # Per bank write bursts
system.mem_ctrls3.perBankRdBursts::10           20195                       # Per bank write bursts
system.mem_ctrls3.perBankRdBursts::11           20538                       # Per bank write bursts
system.mem_ctrls3.perBankRdBursts::12           19978                       # Per bank write bursts
system.mem_ctrls3.perBankRdBursts::13           19843                       # Per bank write bursts
system.mem_ctrls3.perBankRdBursts::14           20097                       # Per bank write bursts
system.mem_ctrls3.perBankRdBursts::15           20140                       # Per bank write bursts
system.mem_ctrls3.perBankWrBursts::0            12669                       # Per bank write bursts
system.mem_ctrls3.perBankWrBursts::1            12630                       # Per bank write bursts
system.mem_ctrls3.perBankWrBursts::2            12562                       # Per bank write bursts
system.mem_ctrls3.perBankWrBursts::3            12779                       # Per bank write bursts
system.mem_ctrls3.perBankWrBursts::4            12596                       # Per bank write bursts
system.mem_ctrls3.perBankWrBursts::5            12705                       # Per bank write bursts
system.mem_ctrls3.perBankWrBursts::6            12634                       # Per bank write bursts
system.mem_ctrls3.perBankWrBursts::7            12819                       # Per bank write bursts
system.mem_ctrls3.perBankWrBursts::8            12527                       # Per bank write bursts
system.mem_ctrls3.perBankWrBursts::9            12754                       # Per bank write bursts
system.mem_ctrls3.perBankWrBursts::10           12518                       # Per bank write bursts
system.mem_ctrls3.perBankWrBursts::11           12492                       # Per bank write bursts
system.mem_ctrls3.perBankWrBursts::12           12474                       # Per bank write bursts
system.mem_ctrls3.perBankWrBursts::13           12460                       # Per bank write bursts
system.mem_ctrls3.perBankWrBursts::14           12714                       # Per bank write bursts
system.mem_ctrls3.perBankWrBursts::15           12521                       # Per bank write bursts
system.mem_ctrls3.numRdRetry                     3897                       # Number of times read queue was full causing retry
system.mem_ctrls3.numWrRetry                     1989                       # Number of times write queue was full causing retry
system.mem_ctrls3.totGap                 131444505000                       # Total gap between requests
system.mem_ctrls3.readPktSize::0                    0                       # Read request sizes (log2)
system.mem_ctrls3.readPktSize::1                    0                       # Read request sizes (log2)
system.mem_ctrls3.readPktSize::2                    0                       # Read request sizes (log2)
system.mem_ctrls3.readPktSize::3                    0                       # Read request sizes (log2)
system.mem_ctrls3.readPktSize::4                    0                       # Read request sizes (log2)
system.mem_ctrls3.readPktSize::5                    0                       # Read request sizes (log2)
system.mem_ctrls3.readPktSize::6               324612                       # Read request sizes (log2)
system.mem_ctrls3.writePktSize::0                   0                       # Write request sizes (log2)
system.mem_ctrls3.writePktSize::1                   0                       # Write request sizes (log2)
system.mem_ctrls3.writePktSize::2                   0                       # Write request sizes (log2)
system.mem_ctrls3.writePktSize::3                   0                       # Write request sizes (log2)
system.mem_ctrls3.writePktSize::4                   0                       # Write request sizes (log2)
system.mem_ctrls3.writePktSize::5                   0                       # Write request sizes (log2)
system.mem_ctrls3.writePktSize::6              201857                       # Write request sizes (log2)
system.mem_ctrls3.rdQLenPdf::0                 180854                       # What read queue length does an incoming req see
system.mem_ctrls3.rdQLenPdf::1                  14633                       # What read queue length does an incoming req see
system.mem_ctrls3.rdQLenPdf::2                  14462                       # What read queue length does an incoming req see
system.mem_ctrls3.rdQLenPdf::3                  13032                       # What read queue length does an incoming req see
system.mem_ctrls3.rdQLenPdf::4                  12396                       # What read queue length does an incoming req see
system.mem_ctrls3.rdQLenPdf::5                  11258                       # What read queue length does an incoming req see
system.mem_ctrls3.rdQLenPdf::6                  10187                       # What read queue length does an incoming req see
system.mem_ctrls3.rdQLenPdf::7                   9088                       # What read queue length does an incoming req see
system.mem_ctrls3.rdQLenPdf::8                   7751                       # What read queue length does an incoming req see
system.mem_ctrls3.rdQLenPdf::9                   6632                       # What read queue length does an incoming req see
system.mem_ctrls3.rdQLenPdf::10                  5904                       # What read queue length does an incoming req see
system.mem_ctrls3.rdQLenPdf::11                  5022                       # What read queue length does an incoming req see
system.mem_ctrls3.rdQLenPdf::12                  4305                       # What read queue length does an incoming req see
system.mem_ctrls3.rdQLenPdf::13                  3751                       # What read queue length does an incoming req see
system.mem_ctrls3.rdQLenPdf::14                  3071                       # What read queue length does an incoming req see
system.mem_ctrls3.rdQLenPdf::15                  2541                       # What read queue length does an incoming req see
system.mem_ctrls3.rdQLenPdf::16                  2181                       # What read queue length does an incoming req see
system.mem_ctrls3.rdQLenPdf::17                  1855                       # What read queue length does an incoming req see
system.mem_ctrls3.rdQLenPdf::18                  1664                       # What read queue length does an incoming req see
system.mem_ctrls3.rdQLenPdf::19                  1406                       # What read queue length does an incoming req see
system.mem_ctrls3.rdQLenPdf::20                  1219                       # What read queue length does an incoming req see
system.mem_ctrls3.rdQLenPdf::21                   998                       # What read queue length does an incoming req see
system.mem_ctrls3.rdQLenPdf::22                   900                       # What read queue length does an incoming req see
system.mem_ctrls3.rdQLenPdf::23                   808                       # What read queue length does an incoming req see
system.mem_ctrls3.rdQLenPdf::24                   698                       # What read queue length does an incoming req see
[...]
system.ruby.L2Cache_Controller.S_I.Ack_all::total           32                      
system.ruby.L2Cache_Controller.ISS.Mem_Data |       25559      5.07%      5.07% |       15490      3.07%      8.14% |       15524      3.08%     11.22% |       15472      3.07%     14.29% |       15443      3.06%     17.35% |       15424      3.06%     20.41% |       15427      3.06%     23.47% |       15425      3.06%     26.52% |       15458      3.07%     29.59% |       15471      3.07%     32.66% |       15497      3.07%     35.73% |       15421      3.06%     38.79% |       15434      3.06%     41.85% |       15442      3.06%     44.91% |       15451      3.06%     47.97% |       15417      3.06%     51.03% |       15427      3.06%     54.09% |       15420      3.06%     57.15% |       15444      3.06%     60.21% |       15428      3.06%     63.27% |       15447      3.06%     66.33% |       15458      3.07%     69.40% |       15457      3.07%     72.46% |       15433      3.06%     75.52% |       15450      3.06%     78.59% |       15447      3.06%     81.65% |       15425      3.06%     84.71% |       15403      3.05%     87.76% |       15447      3.06%     90.83% |       15412      3.06%     93.88% |       15416      3.06%     96.94% |       15435      3.06%    100.00%
system.ruby.L2Cache_Controller.ISS.Mem_Data::total       504304                      
system.ruby.L2Cache_Controller.IS.Mem_Data |         503      3.21%      3.21% |         453      2.89%      6.09% |         438      2.79%      8.89% |         449      2.86%     11.75% |         450      2.87%     14.62% |         430      2.74%     17.36% |         472      3.01%     20.36% |         491      3.13%     23.49% |         505      3.22%     26.71% |         445      2.84%     29.55% |         487      3.10%     32.65% |         498      3.17%     35.83% |         551      3.51%     39.34% |         523      3.33%     42.67% |         510      3.25%     45.92% |         492      3.14%     49.06% |         515      3.28%     52.34% |         532      3.39%     55.73% |         529      3.37%     59.11% |         484      3.08%     62.19% |         474      3.02%     65.21% |         523      3.33%     68.54% |         477      3.04%     71.59% |         450      2.87%     74.45% |         518      3.30%     77.76% |         578      3.68%     81.44% |         522      3.33%     84.77% |         479      3.05%     87.82% |         457      2.91%     90.73% |         512      3.26%     94.00% |         488      3.11%     97.11% |         454      2.89%    100.00%
system.ruby.L2Cache_Controller.IS.Mem_Data::total        15689                      
system.ruby.L2Cache_Controller.IM.Mem_Data |       24760      3.14%      3.14% |       24665      3.12%      6.26% |       24674      3.12%      9.38% |       24679      3.13%     12.51% |       24670      3.12%     15.63% |       24674      3.12%     18.76% |       24675      3.12%     21.88% |       24666      3.12%     25.00% |       24681      3.13%     28.13% |       24680      3.13%     31.26% |       24663      3.12%     34.38% |       24687      3.13%     37.50% |       24674      3.12%     40.63% |       24671      3.12%     43.75% |       24669      3.12%     46.88% |       24662      3.12%     50.00% |       24683      3.13%     53.13% |       24680      3.13%     56.25% |       24677      3.12%     59.38% |       24675      3.12%     62.50% |       24689      3.13%     65.63% |       24700      3.13%     68.75% |       24670      3.12%     71.88% |       24674      3.12%     75.00% |       24686      3.13%     78.13% |       24680      3.13%     81.25% |       24683      3.13%     84.38% |       24670      3.12%     87.50% |       24671      3.12%     90.63% |       24672      3.12%     93.75% |       24681      3.13%     96.88% |       24668      3.12%    100.00%
system.ruby.L2Cache_Controller.IM.Mem_Data::total       789709                      
system.ruby.L2Cache_Controller.SS_MB.Exclusive_Unblock |           2      4.17%      4.17% |           4      8.33%     12.50% |           5     10.42%     22.92% |           3      6.25%     29.17% |           0      0.00%     29.17% |           0      0.00%     29.17% |           0      0.00%     29.17% |           0      0.00%     29.17% |           1      2.08%     31.25% |           1      2.08%     33.33% |           0      0.00%     33.33% |           1      2.08%     35.42% |           6     12.50%     47.92% |           0      0.00%     47.92% |           2      4.17%     52.08% |           0      0.00%     52.08% |           0      0.00%     52.08% |           0      0.00%     52.08% |           7     14.58%     66.67% |           5     10.42%     77.08% |           1      2.08%     79.17% |           0      0.00%     79.17% |           0      0.00%     79.17% |           0      0.00%     79.17% |           1      2.08%     81.25% |           1      2.08%     83.33% |           1      2.08%     85.42% |           1      2.08%     87.50% |           5     10.42%     97.92% |           0      0.00%     97.92% |           1      2.08%    100.00% |           0      0.00%    100.00%
system.ruby.L2Cache_Controller.SS_MB.Exclusive_Unblock::total           48                      
system.ruby.L2Cache_Controller.MT_MB.L1_PUTX |           7    100.00%    100.00% |           0      0.00%    100.00% |           0      0.00%    100.00% |           0      0.00%    100.00% |           0      0.00%    100.00% |           0      0.00%    100.00% |           0      0.00%    100.00% |           0      0.00%    100.00% |           0      0.00%    100.00% |           0      0.00%    100.00% |           0      0.00%    100.00% |           0      0.00%    100.00% |           0      0.00%    100.00% |           0      0.00%    100.00% |           0      0.00%    100.00% |           0      0.00%    100.00% |           0      0.00%    100.00% |           0      0.00%    100.00% |           0      0.00%    100.00% |           0      0.00%    100.00% |           0      0.00%    100.00% |           0      0.00%    100.00% |           0      0.00%    100.00% |           0      0.00%    100.00% |           0      0.00%    100.00% |           0      0.00%    100.00% |           0      0.00%    100.00% |           0      0.00%    100.00% |           0      0.00%    100.00% |           0      0.00%    100.00% |           0      0.00%    100.00% |           0      0.00%    100.00%
system.ruby.L2Cache_Controller.MT_MB.L1_PUTX::total            7                      
system.ruby.L2Cache_Controller.MT_MB.Exclusive_Unblock |      171801      9.58%      9.58% |       54289      3.03%     12.60% |       49292      2.75%     15.35% |       52997      2.95%     18.30% |       53511      2.98%     21.29% |       49522      2.76%     24.05% |       45956      2.56%     26.61% |       45965      2.56%     29.17% |       51550      2.87%     32.04% |       49818      2.78%     34.82% |       54083      3.01%     37.83% |       51031      2.84%     40.68% |       48288      2.69%     43.37% |       46918      2.62%     45.99% |       47888      2.67%     48.66% |       46619      2.60%     51.25% |       50584      2.82%     54.07% |       48374      2.70%     56.77% |       49899      2.78%     59.55% |       54015      3.01%     62.56% |       54528      3.04%     65.60% |       63388      3.53%     69.13% |       58003      3.23%     72.37% |       53244      2.97%     75.33% |       53499      2.98%     78.32% |       51444      2.87%     81.18% |       52510      2.93%     84.11% |       52305      2.92%     87.03% |       55509      3.09%     90.12% |       55169      3.08%     93.20% |       63480      3.54%     96.73% |       58595      3.27%    100.00%
system.ruby.L2Cache_Controller.MT_MB.Exclusive_Unblock::total      1794074                      
system.ruby.L2Cache_Controller.MT_IIB.WB_Data |           0      0.00%      0.00% |           0      0.00%      0.00% |           1      7.14%      7.14% |           1      7.14%     14.29% |           1      7.14%     21.43% |           0      0.00%     21.43% |           1      7.14%     28.57% |           0      0.00%     28.57% |           1      7.14%     35.71% |           1      7.14%     42.86% |           1      7.14%     50.00% |           1      7.14%     57.14% |           1      7.14%     64.29% |           0      0.00%     64.29% |           1      7.14%     71.43% |           1      7.14%     78.57% |           1      7.14%     85.71% |           1      7.14%     92.86% |           1      7.14%    100.00% |           0      0.00%    100.00% |           0      0.00%    100.00% |           0      0.00%    100.00% |           0      0.00%    100.00% |           0      0.00%    100.00% |           0      0.00%    100.00% |           0      0.00%    100.00% |           0      0.00%    100.00% |           0      0.00%    100.00% |           0      0.00%    100.00% |           0      0.00%    100.00% |           0      0.00%    100.00% |           0      0.00%    100.00%
system.ruby.L2Cache_Controller.MT_IIB.WB_Data::total           14                      
system.ruby.L2Cache_Controller.MT_IIB.WB_Data_clean |           7    100.00%    100.00% |           0      0.00%    100.00% |           0      0.00%    100.00% |           0      0.00%    100.00% |           0      0.00%    100.00% |           0      0.00%    100.00% |           0      0.00%    100.00% |           0      0.00%    100.00% |           0      0.00%    100.00% |           0      0.00%    100.00% |           0      0.00%    100.00% |           0      0.00%    100.00% |           0      0.00%    100.00% |           0      0.00%    100.00% |           0      0.00%    100.00% |           0      0.00%    100.00% |           0      0.00%    100.00% |           0      0.00%    100.00% |           0      0.00%    100.00% |           0      0.00%    100.00% |           0      0.00%    100.00% |           0      0.00%    100.00% |           0      0.00%    100.00% |           0      0.00%    100.00% |           0      0.00%    100.00% |           0      0.00%    100.00% |           0      0.00%    100.00% |           0      0.00%    100.00% |           0      0.00%    100.00% |           0      0.00%    100.00% |           0      0.00%    100.00% |           0      0.00%    100.00%
system.ruby.L2Cache_Controller.MT_IIB.WB_Data_clean::total            7                      
system.ruby.L2Cache_Controller.MT_IIB.Unblock |           0      0.00%      0.00% |           0      0.00%      0.00% |           0      0.00%      0.00% |           0      0.00%      0.00% |           0      0.00%      0.00% |           0      0.00%      0.00% |           0      0.00%      0.00% |           1     50.00%     50.00% |           0      0.00%     50.00% |           0      0.00%     50.00% |           0      0.00%     50.00% |           0      0.00%     50.00% |           0      0.00%     50.00% |           1     50.00%    100.00% |           0      0.00%    100.00% |           0      0.00%    100.00% |           0      0.00%    100.00% |           0      0.00%    100.00% |           0      0.00%    100.00% |           0      0.00%    100.00% |           0      0.00%    100.00% |           0      0.00%    100.00% |           0      0.00%    100.00% |           0      0.00%    100.00% |           0      0.00%    100.00% |           0      0.00%    100.00% |           0      0.00%    100.00% |           0      0.00%    100.00% |           0      0.00%    100.00% |           0      0.00%    100.00% |           0      0.00%    100.00% |           0      0.00%    100.00%
system.ruby.L2Cache_Controller.MT_IIB.Unblock::total            2                      
system.ruby.L2Cache_Controller.MT_IB.WB_Data |           0      0.00%      0.00% |           0      0.00%      0.00% |           0      0.00%      0.00% |           0      0.00%      0.00% |           0      0.00%      0.00% |           0      0.00%      0.00% |           0      0.00%      0.00% |           1     50.00%     50.00% |           0      0.00%     50.00% |           0      0.00%     50.00% |           0      0.00%     50.00% |           0      0.00%     50.00% |           0      0.00%     50.00% |           1     50.00%    100.00% |           0      0.00%    100.00% |           0      0.00%    100.00% |           0      0.00%    100.00% |           0      0.00%    100.00% |           0      0.00%    100.00% |           0      0.00%    100.00% |           0      0.00%    100.00% |           0      0.00%    100.00% |           0      0.00%    100.00% |           0      0.00%    100.00% |           0      0.00%    100.00% |           0      0.00%    100.00% |           0      0.00%    100.00% |           0      0.00%    100.00% |           0      0.00%    100.00% |           0      0.00%    100.00% |           0      0.00%    100.00% |           0      0.00%    100.00%
system.ruby.L2Cache_Controller.MT_IB.WB_Data::total            2                      
system.ruby.L2Cache_Controller.MT_SB.Unblock |           7     33.33%     33.33% |           0      0.00%     33.33% |           1      4.76%     38.10% |           1      4.76%     42.86% |           1      4.76%     47.62% |           0      0.00%     47.62% |           1      4.76%     52.38% |           0      0.00%     52.38% |           1      4.76%     57.14% |           1      4.76%     61.90% |           1      4.76%     66.67% |           1      4.76%     71.43% |           1      4.76%     76.19% |           0      0.00%     76.19% |           1      4.76%     80.95% |           1      4.76%     85.71% |           1      4.76%     90.48% |           1      4.76%     95.24% |           1      4.76%    100.00% |           0      0.00%    100.00% |           0      0.00%    100.00% |           0      0.00%    100.00% |           0      0.00%    100.00% |           0      0.00%    100.00% |           0      0.00%    100.00% |           0      0.00%    100.00% |           0      0.00%    100.00% |           0      0.00%    100.00% |           0      0.00%    100.00% |           0      0.00%    100.00% |           0      0.00%    100.00% |           0      0.00%    100.00%
system.ruby.L2Cache_Controller.MT_SB.Unblock::total           21                      
system.ruby.SimicsNetworkPortInterface_Controller.MessageSend |      270769     22.74%     22.74% |      595335     50.00%     72.74% |       40747      3.42%     76.16% |       41265      3.47%     79.63% |       40697      3.42%     83.05% |       40823      3.43%     86.48% |       40074      3.37%     89.84% |       41348      3.47%     93.31% |       40030      3.36%     96.68% |       39582      3.32%    100.00% |           0      0.00%    100.00% |           0      0.00%    100.00% |           0      0.00%    100.00% |           0      0.00%    100.00% |           0      0.00%    100.00% |           0      0.00%    100.00% |           0      0.00%    100.00% |           0      0.00%    100.00% |           0      0.00%    100.00% |           0      0.00%    100.00% |           0      0.00%    100.00% |           0      0.00%    100.00% |           0      0.00%    100.00% |           0      0.00%    100.00% |           0      0.00%    100.00% |           0      0.00%    100.00% |           0      0.00%    100.00% |           0      0.00%    100.00% |           0      0.00%    100.00% |           0      0.00%    100.00% |           0      0.00%    100.00% |           0      0.00%    100.00%
system.ruby.SimicsNetworkPortInterface_Controller.MessageSend::total      1190670                      
system.ruby.SimicsNetworkPortInterface_Controller.MessageRecv |      270769     22.74%     22.74% |      595335     50.00%     72.74% |       40747      3.42%     76.16% |       41265      3.47%     79.63% |       40697      3.42%     83.05% |       40823      3.43%     86.48% |       40074      3.37%     89.84% |       41348      3.47%     93.31% |       40030      3.36%     96.68% |       39582      3.32%    100.00% |           0      0.00%    100.00% |           0      0.00%    100.00% |           0      0.00%    100.00% |           0      0.00%    100.00% |           0      0.00%    100.00% |           0      0.00%    100.00% |           0      0.00%    100.00% |           0      0.00%    100.00% |           0      0.00%    100.00% |           0      0.00%    100.00% |           0      0.00%    100.00% |           0      0.00%    100.00% |           0      0.00%    100.00% |           0      0.00%    100.00% |           0      0.00%    100.00% |           0      0.00%    100.00% |           0      0.00%    100.00% |           0      0.00%    100.00% |           0      0.00%    100.00% |           0      0.00%    100.00% |           0      0.00%    100.00% |           0      0.00%    100.00%
system.ruby.SimicsNetworkPortInterface_Controller.MessageRecv::total      1190670                      
system.ruby.SimicsNetworkPortInterface_Controller.A.MessageSend |      270769     22.74%     22.74% |      595335     50.00%     72.74% |       40747      3.42%     76.16% |       41265      3.47%     79.63% |       40697      3.42%     83.05% |       40823      3.43%     86.48% |       40074      3.37%     89.84% |       41348      3.47%     93.31% |       40030      3.36%     96.68% |       39582      3.32%    100.00% |           0      0.00%    100.00% |           0      0.00%    100.00% |           0      0.00%    100.00% |           0      0.00%    100.00% |           0      0.00%    100.00% |           0      0.00%    100.00% |           0      0.00%    100.00% |           0      0.00%    100.00% |           0      0.00%    100.00% |           0      0.00%    100.00% |           0      0.00%    100.00% |           0      0.00%    100.00% |           0      0.00%    100.00% |           0      0.00%    100.00% |           0      0.00%    100.00% |           0      0.00%    100.00% |           0      0.00%    100.00% |           0      0.00%    100.00% |           0      0.00%    100.00% |           0      0.00%    100.00% |           0      0.00%    100.00% |           0      0.00%    100.00%
system.ruby.SimicsNetworkPortInterface_Controller.A.MessageSend::total      1190670                      
system.ruby.SimicsNetworkPortInterface_Controller.A.MessageRecv |      270769     22.74%     22.74% |      595335     50.00%     72.74% |       40747      3.42%     76.16% |       41265      3.47%     79.63% |       40697      3.42%     83.05% |       40823      3.43%     86.48% |       40074      3.37%     89.84% |       41348      3.47%     93.31% |       40030      3.36%     96.68% |       39582      3.32%    100.00% |           0      0.00%    100.00% |           0      0.00%    100.00% |           0      0.00%    100.00% |           0      0.00%    100.00% |           0      0.00%    100.00% |           0      0.00%    100.00% |           0      0.00%    100.00% |           0      0.00%    100.00% |           0      0.00%    100.00% |           0      0.00%    100.00% |           0      0.00%    100.00% |           0      0.00%    100.00% |           0      0.00%    100.00% |           0      0.00%    100.00% |           0      0.00%    100.00% |           0      0.00%    100.00% |           0      0.00%    100.00% |           0      0.00%    100.00% |           0      0.00%    100.00% |           0      0.00%    100.00% |           0      0.00%    100.00% |           0      0.00%    100.00%
system.ruby.SimicsNetworkPortInterface_Controller.A.MessageRecv::total      1190670                      
system.switch_cpus.kern.inst.arm                    0                       # number of arm instructions executed
system.switch_cpus.kern.inst.quiesce                0                       # number of quiesce instructions executed

---------- End Simulation Statistics   ----------
