
---------- Begin Simulation Statistics ----------
sim_seconds                                  0.130685                       # Number of seconds simulated
sim_ticks                                130685142000                       # Number of ticks simulated
final_tick                               5306853220500                       # Number of ticks from beginning of simulation (restored from checkpoints and never reset)
sim_freq                                 1000000000000                       # Frequency of simulated ticks
host_inst_rate                                  15997                       # Simulator instruction rate (inst/s)
host_op_rate                                    27618                       # Simulator op (including micro ops) rate (op/s)
host_tick_rate                               48954773                       # Simulator tick rate (ticks/s)
host_mem_usage                                3699168                       # Number of bytes of host memory used
host_seconds                                  2669.51                       # Real time elapsed on the host
sim_insts                                    42703764                       # Number of instructions simulated
sim_ops                                      73726538                       # Number of ops (including micro ops) simulated
system.voltage_domain.voltage                       1                       # Voltage in Volts
system.clk_domain.clock                           500                       # Clock period in ticks
system.mem_ctrls0.bytes_read::ruby.dir_cntrl0     21449408                       # Number of bytes read from this memory
system.mem_ctrls0.bytes_read::total          21449408                       # Number of bytes read from this memory
system.mem_ctrls0.bytes_written::ruby.dir_cntrl0     13545024                       # Number of bytes written to this memory
system.mem_ctrls0.bytes_written::total       13545024                       # Number of bytes written to this memory
system.mem_ctrls0.num_reads::ruby.dir_cntrl0       335147                       # Number of read requests responded to by this memory
system.mem_ctrls0.num_reads::total             335147                       # Number of read requests responded to by this memory
system.mem_ctrls0.num_writes::ruby.dir_cntrl0       211641                       # Number of write requests responded to by this memory
system.mem_ctrls0.num_writes::total            211641                       # Number of write requests responded to by this memory
system.mem_ctrls0.bw_read::ruby.dir_cntrl0    164130426                       # Total read bandwidth from this memory (bytes/s)
system.mem_ctrls0.bw_read::total            164130426                       # Total read bandwidth from this memory (bytes/s)
system.mem_ctrls0.bw_write::ruby.dir_cntrl0    103646243                       # Write bandwidth from this memory (bytes/s)
system.mem_ctrls0.bw_write::total           103646243                       # Write bandwidth from this memory (bytes/s)
system.mem_ctrls0.bw_total::ruby.dir_cntrl0    267776669                       # Total bandwidth to/from this memory (bytes/s)
system.mem_ctrls0.bw_total::total           267776669                       # Total bandwidth to/from this memory (bytes/s)
system.mem_ctrls0.readReqs                     335147                       # Number of read requests accepted
system.mem_ctrls0.writeReqs                    211641                       # Number of write requests accepted
system.mem_ctrls0.readBursts                   335147                       # Number of DRAM read bursts, including those serviced by the write queue
system.mem_ctrls0.writeBursts                  211641                       # Number of DRAM write bursts, including those merged in the write queue
system.mem_ctrls0.bytesReadDRAM              21448320                       # Total number of bytes read from DRAM
system.mem_ctrls0.bytesReadWrQ                   1088                       # Total number of bytes read from write queue
system.mem_ctrls0.bytesWritten               13544832                       # Total number of bytes written to DRAM
system.mem_ctrls0.bytesReadSys               21449408                       # Total read bytes from the system interface side
system.mem_ctrls0.bytesWrittenSys            13545024                       # Total written bytes from the system interface side
system.mem_ctrls0.servicedByWrQ                    17                       # Number of DRAM read bursts serviced by the write queue
system.mem_ctrls0.mergedWrBursts                    0                       # Number of DRAM write bursts merged with an existing one
system.mem_ctrls0.neitherReadNorWriteReqs            0                       # Number of requests that are neither read nor write
system.mem_ctrls0.perBankRdBursts::0            20681                       # Per bank write bursts
system.mem_ctrls0.perBankRdBursts::1            21300                       # Per bank write bursts
system.mem_ctrls0.perBankRdBursts::2            20871                       # Per bank write bursts
system.mem_ctrls0.perBankRdBursts::3            21354                       # Per bank write bursts
system.mem_ctrls0.perBankRdBursts::4            20959                       # Per bank write bursts
system.mem_ctrls0.perBankRdBursts::5            21179                       # Per bank write bursts
system.mem_ctrls0.perBankRdBursts::6            21080                       # Per bank write bursts
system.mem_ctrls0.perBankRdBursts::7            21063                       # Per bank write bursts
system.mem_ctrls0.perBankRdBursts::8            20834                       # Per bank write bursts
system.mem_ctrls0.perBankRdBursts::9            21042                       # Per bank write bursts
system.mem_ctrls0.perBankRdBursts::10           20806                       # Per bank write bursts
system.mem_ctrls0.perBankRdBursts::11           21192                       # Per bank write bursts
system.mem_ctrls0.perBankRdBursts::12           20652                       # Per bank write bursts
system.mem_ctrls0.perBankRdBursts::13           20561                       # Per bank write bursts
system.mem_ctrls0.perBankRdBursts::14           20784                       # Per bank write bursts
system.mem_ctrls0.perBankRdBursts::15           20772                       # Per bank write bursts
system.mem_ctrls0.perBankWrBursts::0            13294                       # Per bank write bursts
system.mem_ctrls0.perBankWrBursts::1            13240                       # Per bank write bursts
system.mem_ctrls0.perBankWrBursts::2            13157                       # Per bank write bursts
system.mem_ctrls0.perBankWrBursts::3            13370                       # Per bank write bursts
system.mem_ctrls0.perBankWrBursts::4            13195                       # Per bank write bursts
system.mem_ctrls0.perBankWrBursts::5            13319                       # Per bank write bursts
system.mem_ctrls0.perBankWrBursts::6            13247                       # Per bank write bursts
system.mem_ctrls0.perBankWrBursts::7            13413                       # Per bank write bursts
system.mem_ctrls0.perBankWrBursts::8            13140                       # Per bank write bursts
system.mem_ctrls0.perBankWrBursts::9            13341                       # Per bank write bursts
system.mem_ctrls0.perBankWrBursts::10           13156                       # Per bank write bursts
system.mem_ctrls0.perBankWrBursts::11           13097                       # Per bank write bursts
system.mem_ctrls0.perBankWrBursts::12           13060                       # Per bank write bursts
system.mem_ctrls0.perBankWrBursts::13           13073                       # Per bank write bursts
system.mem_ctrls0.perBankWrBursts::14           13363                       # Per bank write bursts
system.mem_ctrls0.perBankWrBursts::15           13173                       # Per bank write bursts
system.mem_ctrls0.numRdRetry                    99088                       # Number of times read queue was full causing retry
system.mem_ctrls0.numWrRetry                     3088                       # Number of times write queue was full causing retry
system.mem_ctrls0.totGap                 130684555500                       # Total gap between requests
system.mem_ctrls0.readPktSize::0                    0                       # Read request sizes (log2)
system.mem_ctrls0.readPktSize::1                    0                       # Read request sizes (log2)
system.mem_ctrls0.readPktSize::2                    0                       # Read request sizes (log2)
system.mem_ctrls0.readPktSize::3                    0                       # Read request sizes (log2)
system.mem_ctrls0.readPktSize::4                    0                       # Read request sizes (log2)
system.mem_ctrls0.readPktSize::5                    0                       # Read request sizes (log2)
system.mem_ctrls0.readPktSize::6               335147                       # Read request sizes (log2)
system.mem_ctrls0.writePktSize::0                   0                       # Write request sizes (log2)
system.mem_ctrls0.writePktSize::1                   0                       # Write request sizes (log2)
system.mem_ctrls0.writePktSize::2                   0                       # Write request sizes (log2)
system.mem_ctrls0.writePktSize::3                   0                       # Write request sizes (log2)
system.mem_ctrls0.writePktSize::4                   0                       # Write request sizes (log2)
system.mem_ctrls0.writePktSize::5                   0                       # Write request sizes (log2)
system.mem_ctrls0.writePktSize::6              211641                       # Write request sizes (log2)
system.mem_ctrls0.rdQLenPdf::0                 175656                       # What read queue length does an incoming req see
system.mem_ctrls0.rdQLenPdf::1                   5194                       # What read queue length does an incoming req see
system.mem_ctrls0.rdQLenPdf::2                   2397                       # What read queue length does an incoming req see
system.mem_ctrls0.rdQLenPdf::3                   1007                       # What read queue length does an incoming req see
system.mem_ctrls0.rdQLenPdf::4                   1081                       # What read queue length does an incoming req see
system.mem_ctrls0.rdQLenPdf::5                   1220                       # What read queue length does an incoming req see
system.mem_ctrls0.rdQLenPdf::6                   1324                       # What read queue length does an incoming req see
system.mem_ctrls0.rdQLenPdf::7                   1404                       # What read queue length does an incoming req see
system.mem_ctrls0.rdQLenPdf::8                   1547                       # What read queue length does an incoming req see
system.mem_ctrls0.rdQLenPdf::9                   1591                       # What read queue length does an incoming req see
system.mem_ctrls0.rdQLenPdf::10                  1617                       # What read queue length does an incoming req see
system.mem_ctrls0.rdQLenPdf::11                  1646                       # What read queue length does an incoming req see
system.mem_ctrls0.rdQLenPdf::12                  1672                       # What read queue length does an incoming req see
system.mem_ctrls0.rdQLenPdf::13                  1753                       # What read queue length does an incoming req see
system.mem_ctrls0.rdQLenPdf::14                  1777                       # What read queue length does an incoming req see
system.mem_ctrls0.rdQLenPdf::15                  1867                       # What read queue length does an incoming req see
system.mem_ctrls0.rdQLenPdf::16                  1939                       # What read queue length does an incoming req see
system.mem_ctrls0.rdQLenPdf::17                  1925                       # What read queue length does an incoming req see
system.mem_ctrls0.rdQLenPdf::18                  2046                       # What read queue length does an incoming req see
system.mem_ctrls0.rdQLenPdf::19                  2054                       # What read queue length does an incoming req see
system.mem_ctrls0.rdQLenPdf::20                  1955                       # What read queue length does an incoming req see
system.mem_ctrls0.rdQLenPdf::21                  1891                       # What read queue length does an incoming req see
system.mem_ctrls0.rdQLenPdf::22                  1912                       # What read queue length does an incoming req see
system.mem_ctrls0.rdQLenPdf::23                  1975                       # What read queue length does an incoming req see
system.mem_ctrls0.rdQLenPdf::24                  1979                       # What read queue length does an incoming req see
system.mem_ctrls0.rdQLenPdf::25                  1993                       # What read queue length does an incoming req see
system.mem_ctrls0.rdQLenPdf::26                  2091                       # What read queue length does an incoming req see
system.mem_ctrls0.rdQLenPdf::27                  2014                       # What read queue length does an incoming req see
system.mem_ctrls0.rdQLenPdf::28                  2049                       # What read queue length does an incoming req see
system.mem_ctrls0.rdQLenPdf::29                  2082                       # What read queue length does an incoming req see
system.mem_ctrls0.rdQLenPdf::30                  2398                       # What read queue length does an incoming req see
system.mem_ctrls0.rdQLenPdf::31                102074                       # What read queue length does an incoming req see
system.mem_ctrls0.wrQLenPdf::0                  37578                       # What write queue length does an incoming req see
system.mem_ctrls0.wrQLenPdf::1                  38505                       # What write queue length does an incoming req see
system.mem_ctrls0.wrQLenPdf::2                  39038                       # What write queue length does an incoming req see
system.mem_ctrls0.wrQLenPdf::3                  39279                       # What write queue length does an incoming req see
system.mem_ctrls0.wrQLenPdf::4                  39156                       # What write queue length does an incoming req see
system.mem_ctrls0.wrQLenPdf::5                   5414                       # What write queue length does an incoming req see
system.mem_ctrls0.wrQLenPdf::6                   5998                       # What write queue length does an incoming req see
system.mem_ctrls0.wrQLenPdf::7                   6673                       # What write queue length does an incoming req see
system.mem_ctrls0.bytesPerActivate::samples       152525                       # Bytes accessed per row activation
system.mem_ctrls0.bytesPerActivate::mean   229.425261                       # Bytes accessed per row activation
system.mem_ctrls0.bytesPerActivate::gmean   168.142379                       # Bytes accessed per row activation
system.mem_ctrls0.bytesPerActivate::stdev   190.642054                       # Bytes accessed per row activation
system.mem_ctrls0.bytesPerActivate::0-127        51679     33.88%     33.88% # Bytes accessed per row activation
system.mem_ctrls0.bytesPerActivate::128-255        30584     20.05%     53.93% # Bytes accessed per row activation
system.mem_ctrls0.bytesPerActivate::256-383        52945     34.71%     88.65% # Bytes accessed per row activation
system.mem_ctrls0.bytesPerActivate::384-511         5997      3.93%     92.58% # Bytes accessed per row activation
system.mem_ctrls0.bytesPerActivate::512-639         4074      2.67%     95.25% # Bytes accessed per row activation
system.mem_ctrls0.bytesPerActivate::640-767         2295      1.50%     96.75% # Bytes accessed per row activation
system.mem_ctrls0.bytesPerActivate::768-895         1349      0.88%     97.64% # Bytes accessed per row activation
system.mem_ctrls0.bytesPerActivate::896-1023         1055      0.69%     98.33% # Bytes accessed per row activation
system.mem_ctrls0.bytesPerActivate::1024-1151         2547      1.67%    100.00% # Bytes accessed per row activation
system.mem_ctrls0.bytesPerActivate::total       152525                       # Bytes accessed per row activation
system.mem_ctrls0.rdPerTurnAround::samples        37841                       # Reads before turning the bus around for writes
system.mem_ctrls0.rdPerTurnAround::mean      8.855791                       # Reads before turning the bus around for writes
system.mem_ctrls0.rdPerTurnAround::stdev    23.899322                       # Reads before turning the bus around for writes
system.mem_ctrls0.rdPerTurnAround::0-127        37822     99.95%     99.95% # Reads before turning the bus around for writes
system.mem_ctrls0.rdPerTurnAround::128-255           18      0.05%    100.00% # Reads before turning the bus around for writes
system.mem_ctrls0.rdPerTurnAround::3968-4095            1      0.00%    100.00% # Reads before turning the bus around for writes
system.mem_ctrls0.rdPerTurnAround::total        37841                       # Reads before turning the bus around for writes
system.mem_ctrls0.wrPerTurnAround::samples        37841                       # Writes before turning the bus around for reads
system.mem_ctrls0.wrPerTurnAround::mean      5.592823                       # Writes before turning the bus around for reads
system.mem_ctrls0.wrPerTurnAround::gmean     5.406101                       # Writes before turning the bus around for reads
system.mem_ctrls0.wrPerTurnAround::stdev     1.885141                       # Writes before turning the bus around for reads
system.mem_ctrls0.wrPerTurnAround::4-7          34449     91.04%     91.04% # Writes before turning the bus around for reads
system.mem_ctrls0.wrPerTurnAround::8-11          2257      5.96%     97.00% # Writes before turning the bus around for reads
system.mem_ctrls0.wrPerTurnAround::12-15          695      1.84%     98.84% # Writes before turning the bus around for reads
system.mem_ctrls0.wrPerTurnAround::16-19          440      1.16%    100.00% # Writes before turning the bus around for reads
system.mem_ctrls0.wrPerTurnAround::total        37841                       # Writes before turning the bus around for reads
system.mem_ctrls0.totQLat                 33665495766                       # Total ticks spent queuing
system.mem_ctrls0.totMemAccLat            39949183266                       # Total ticks spent from burst creation until serviced by the DRAM
system.mem_ctrls0.totBusLat                1675650000                       # Total ticks spent in databus transfers
system.mem_ctrls0.avgQLat                   100455.03                       # Average queueing delay per DRAM burst
system.mem_ctrls0.avgBusLat                   5000.00                       # Average bus latency per DRAM burst
system.mem_ctrls0.avgMemAccLat              119205.03                       # Average memory access latency per DRAM burst
system.mem_ctrls0.avgRdBW                      164.12                       # Average DRAM read bandwidth in MiByte/s
system.mem_ctrls0.avgWrBW                      103.64                       # Average achieved write bandwidth in MiByte/s
system.mem_ctrls0.avgRdBWSys                   164.13                       # Average system read bandwidth in MiByte/s
system.mem_ctrls0.avgWrBWSys                   103.65                       # Average system write bandwidth in MiByte/s
system.mem_ctrls0.peakBW                     12800.00                       # Theoretical peak bandwidth in MiByte/s
system.mem_ctrls0.busUtil                        2.09                       # Data bus utilization in percentage
system.mem_ctrls0.busUtilRead                    1.28                       # Data bus utilization in percentage for reads
system.mem_ctrls0.busUtilWrite                   0.81                       # Data bus utilization in percentage for writes
system.mem_ctrls0.avgRdQLen                      1.27                       # Average read queue length when enqueuing
system.mem_ctrls0.avgWrQLen                      2.96                       # Average write queue length when enqueuing
system.mem_ctrls0.readRowHits                  255253                       # Number of row buffer hits during reads
system.mem_ctrls0.writeRowHits                 138989                       # Number of row buffer hits during writes
system.mem_ctrls0.readRowHitRate                76.17                       # Row buffer hit rate for reads
system.mem_ctrls0.writeRowHitRate               65.67                       # Row buffer hit rate for writes
system.mem_ctrls0.avgGap                    239004.07                       # Average gap between requests
system.mem_ctrls0.pageHitRate                   72.10                       # Row buffer hit rate, read and write combined
system.mem_ctrls0.memoryStateTime::IDLE   28041504500                       # Time in different power states
system.mem_ctrls0.memoryStateTime::REF     4363840000                       # Time in different power states
system.mem_ctrls0.memoryStateTime::PRE_PDN            0                       # Time in different power states
system.mem_ctrls0.memoryStateTime::ACT    98279461500                       # Time in different power states
system.mem_ctrls0.memoryStateTime::ACT_PDN            0                       # Time in different power states
system.mem_ctrls0.actEnergy::0              583594200                       # Energy for activate commands per rank (pJ)
system.mem_ctrls0.actEnergy::1              569494800                       # Energy for activate commands per rank (pJ)
system.mem_ctrls0.preEnergy::0              318429375                       # Energy for precharge commands per rank (pJ)
system.mem_ctrls0.preEnergy::1              310736250                       # Energy for precharge commands per rank (pJ)
system.mem_ctrls0.readEnergy::0            1314198600                       # Energy for read commands per rank (pJ)
system.mem_ctrls0.readEnergy::1            1299807600                       # Energy for read commands per rank (pJ)
system.mem_ctrls0.writeEnergy::0            688402800                       # Energy for write commands per rank (pJ)
system.mem_ctrls0.writeEnergy::1            683011440                       # Energy for write commands per rank (pJ)
system.mem_ctrls0.refreshEnergy::0         8535671040                       # Energy for refresh commands per rank (pJ)
system.mem_ctrls0.refreshEnergy::1         8535671040                       # Energy for refresh commands per rank (pJ)
system.mem_ctrls0.actBackEnergy::0        49693969710                       # Energy for active background per rank (pJ)
system.mem_ctrls0.actBackEnergy::1        49259954610                       # Energy for active background per rank (pJ)
system.mem_ctrls0.preBackEnergy::0        34819606500                       # Energy for precharge background per rank (pJ)
system.mem_ctrls0.preBackEnergy::1        35200321500                       # Energy for precharge background per rank (pJ)
system.mem_ctrls0.totalEnergy::0          95953872225                       # Total energy per rank (pJ)
system.mem_ctrls0.totalEnergy::1          95858997240                       # Total energy per rank (pJ)
system.mem_ctrls0.averagePower::0          734.239639                       # Core power per rank (mW)
system.mem_ctrls0.averagePower::1          733.513655                       # Core power per rank (mW)
system.mem_ctrls1.bytes_read::ruby.dir_cntrl1     20800256                       # Number of bytes read from this memory
system.mem_ctrls1.bytes_read::total          20800256                       # Number of bytes read from this memory
system.mem_ctrls1.bytes_written::ruby.dir_cntrl1     12917888                       # Number of bytes written to this memory
system.mem_ctrls1.bytes_written::total       12917888                       # Number of bytes written to this memory
system.mem_ctrls1.num_reads::ruby.dir_cntrl1       325004                       # Number of read requests responded to by this memory
system.mem_ctrls1.num_reads::total             325004                       # Number of read requests responded to by this memory
system.mem_ctrls1.num_writes::ruby.dir_cntrl1       201842                       # Number of write requests responded to by this memory
system.mem_ctrls1.num_writes::total            201842                       # Number of write requests responded to by this memory
system.mem_ctrls1.bw_read::ruby.dir_cntrl1    159163128                       # Total read bandwidth from this memory (bytes/s)
system.mem_ctrls1.bw_read::total            159163128                       # Total read bandwidth from this memory (bytes/s)
system.mem_ctrls1.bw_write::ruby.dir_cntrl1     98847411                       # Write bandwidth from this memory (bytes/s)
system.mem_ctrls1.bw_write::total            98847411                       # Write bandwidth from this memory (bytes/s)
system.mem_ctrls1.bw_total::ruby.dir_cntrl1    258010540                       # Total bandwidth to/from this memory (bytes/s)
system.mem_ctrls1.bw_total::total           258010540                       # Total bandwidth to/from this memory (bytes/s)
system.mem_ctrls1.readReqs                     325004                       # Number of read requests accepted
system.mem_ctrls1.writeReqs                    201842                       # Number of write requests accepted
system.mem_ctrls1.readBursts                   325004                       # Number of DRAM read bursts, including those serviced by the write queue
system.mem_ctrls1.writeBursts                  201842                       # Number of DRAM write bursts, including those merged in the write queue
system.mem_ctrls1.bytesReadDRAM              20798976                       # Total number of bytes read from DRAM
system.mem_ctrls1.bytesReadWrQ                   1280                       # Total number of bytes read from write queue
system.mem_ctrls1.bytesWritten               12917888                       # Total number of bytes written to DRAM
system.mem_ctrls1.bytesReadSys               20800256                       # Total read bytes from the system interface side
system.mem_ctrls1.bytesWrittenSys            12917888                       # Total written bytes from the system interface side
system.mem_ctrls1.servicedByWrQ                    20                       # Number of DRAM read bursts serviced by the write queue
system.mem_ctrls1.mergedWrBursts                    0                       # Number of DRAM write bursts merged with an existing one
system.mem_ctrls1.neitherReadNorWriteReqs            0                       # Number of requests that are neither read nor write
system.mem_ctrls1.perBankRdBursts::0            20059                       # Per bank write bursts
system.mem_ctrls1.perBankRdBursts::1            20697                       # Per bank write bursts
system.mem_ctrls1.perBankRdBursts::2            20233                       # Per bank write bursts
system.mem_ctrls1.perBankRdBursts::3            20687                       # Per bank write bursts
system.mem_ctrls1.perBankRdBursts::4            20381                       # Per bank write bursts
system.mem_ctrls1.perBankRdBursts::5            20548                       # Per bank write bursts
system.mem_ctrls1.perBankRdBursts::6            20440                       # Per bank write bursts
system.mem_ctrls1.perBankRdBursts::7            20517                       # Per bank write bursts
system.mem_ctrls1.perBankRdBursts::8            20186                       # Per bank write bursts
system.mem_ctrls1.perBankRdBursts::9            20382                       # Per bank write bursts
system.mem_ctrls1.perBankRdBursts::10           20150                       # Per bank write bursts
system.mem_ctrls1.perBankRdBursts::11           20570                       # Per bank write bursts
system.mem_ctrls1.perBankRdBursts::12           20018                       # Per bank write bursts
system.mem_ctrls1.perBankRdBursts::13           19897                       # Per bank write bursts
system.mem_ctrls1.perBankRdBursts::14           20086                       # Per bank write bursts
system.mem_ctrls1.perBankRdBursts::15           20133                       # Per bank write bursts
system.mem_ctrls1.perBankWrBursts::0            12683                       # Per bank write bursts
system.mem_ctrls1.perBankWrBursts::1            12645                       # Per bank write bursts
system.mem_ctrls1.perBankWrBursts::2            12546                       # Per bank write bursts
system.mem_ctrls1.perBankWrBursts::3            12757                       # Per bank write bursts
system.mem_ctrls1.perBankWrBursts::4            12597                       # Per bank write bursts
system.mem_ctrls1.perBankWrBursts::5            12718                       # Per bank write bursts
system.mem_ctrls1.perBankWrBursts::6            12630                       # Per bank write bursts
system.mem_ctrls1.perBankWrBursts::7            12795                       # Per bank write bursts
system.mem_ctrls1.perBankWrBursts::8            12528                       # Per bank write bursts
system.mem_ctrls1.perBankWrBursts::9            12715                       # Per bank write bursts
system.mem_ctrls1.perBankWrBursts::10           12549                       # Per bank write bursts
system.mem_ctrls1.perBankWrBursts::11           12484                       # Per bank write bursts
system.mem_ctrls1.perBankWrBursts::12           12461                       # Per bank write bursts
system.mem_ctrls1.perBankWrBursts::13           12461                       # Per bank write bursts
system.mem_ctrls1.perBankWrBursts::14           12703                       # Per bank write bursts
system.mem_ctrls1.perBankWrBursts::15           12570                       # Per bank write bursts
system.mem_ctrls1.numRdRetry                    60479                       # Number of times read queue was full causing retry
system.mem_ctrls1.numWrRetry                     2502                       # Number of times write queue was full causing retry
system.mem_ctrls1.totGap                 130684294500                       # Total gap between requests
system.mem_ctrls1.readPktSize::0                    0                       # Read request sizes (log2)
system.mem_ctrls1.readPktSize::1                    0                       # Read request sizes (log2)
system.mem_ctrls1.readPktSize::2                    0                       # Read request sizes (log2)
system.mem_ctrls1.readPktSize::3                    0                       # Read request sizes (log2)
system.mem_ctrls1.readPktSize::4                    0                       # Read request sizes (log2)
system.mem_ctrls1.readPktSize::5                    0                       # Read request sizes (log2)
system.mem_ctrls1.readPktSize::6               325004                       # Read request sizes (log2)
system.mem_ctrls1.writePktSize::0                   0                       # Write request sizes (log2)
system.mem_ctrls1.writePktSize::1                   0                       # Write request sizes (log2)
system.mem_ctrls1.writePktSize::2                   0                       # Write request sizes (log2)
system.mem_ctrls1.writePktSize::3                   0                       # Write request sizes (log2)
system.mem_ctrls1.writePktSize::4                   0                       # Write request sizes (log2)
system.mem_ctrls1.writePktSize::5                   0                       # Write request sizes (log2)
system.mem_ctrls1.writePktSize::6              201842                       # Write request sizes (log2)
system.mem_ctrls1.rdQLenPdf::0                 171213                       # What read queue length does an incoming req see
system.mem_ctrls1.rdQLenPdf::1                   1800                       # What read queue length does an incoming req see
system.mem_ctrls1.rdQLenPdf::2                   1513                       # What read queue length does an incoming req see
system.mem_ctrls1.rdQLenPdf::3                   1603                       # What read queue length does an incoming req see
system.mem_ctrls1.rdQLenPdf::4                   1826                       # What read queue length does an incoming req see
system.mem_ctrls1.rdQLenPdf::5                   1964                       # What read queue length does an incoming req see
system.mem_ctrls1.rdQLenPdf::6                   2208                       # What read queue length does an incoming req see
system.mem_ctrls1.rdQLenPdf::7                   2369                       # What read queue length does an incoming req see
system.mem_ctrls1.rdQLenPdf::8                   2558                       # What read queue length does an incoming req see
system.mem_ctrls1.rdQLenPdf::9                   2693                       # What read queue length does an incoming req see
system.mem_ctrls1.rdQLenPdf::10                  2850                       # What read queue length does an incoming req see
system.mem_ctrls1.rdQLenPdf::11                  2812                       # What read queue length does an incoming req see
system.mem_ctrls1.rdQLenPdf::12                  2911                       # What read queue length does an incoming req see
system.mem_ctrls1.rdQLenPdf::13                  3110                       # What read queue length does an incoming req see
system.mem_ctrls1.rdQLenPdf::14                  3164                       # What read queue length does an incoming req see
system.mem_ctrls1.rdQLenPdf::15                  3220                       # What read queue length does an incoming req see
system.mem_ctrls1.rdQLenPdf::16                  3156                       # What read queue length does an incoming req see
system.mem_ctrls1.rdQLenPdf::17                  3347                       # What read queue length does an incoming req see
system.mem_ctrls1.rdQLenPdf::18                  3376                       # What read queue length does an incoming req see
system.mem_ctrls1.rdQLenPdf::19                  3312                       # What read queue length does an incoming req see
system.mem_ctrls1.rdQLenPdf::20                  3362                       # What read queue length does an incoming req see
system.mem_ctrls1.rdQLenPdf::21                  3408                       # What read queue length does an incoming req see
system.mem_ctrls1.rdQLenPdf::22                  3455                       # What read queue length does an incoming req see
system.mem_ctrls1.rdQLenPdf::23                  3487                       # What read queue length does an incoming req see
system.mem_ctrls1.rdQLenPdf::24                  3560                       # What read queue length does an incoming req see
system.mem_ctrls1.rdQLenPdf::25                  3515                       # What read queue length does an incoming req see
system.mem_ctrls1.rdQLenPdf::26                  3560                       # What read queue length does an incoming req see
system.mem_ctrls1.rdQLenPdf::27                  3649                       # What read queue length does an incoming req see
system.mem_ctrls1.rdQLenPdf::28                  3676                       # What read queue length does an incoming req see
system.mem_ctrls1.rdQLenPdf::29                  3749                       # What read queue length does an incoming req see
system.mem_ctrls1.rdQLenPdf::30                  3881                       # What read queue length does an incoming req see
system.mem_ctrls1.rdQLenPdf::31                 64677                       # What read queue length does an incoming req see
system.mem_ctrls1.wrQLenPdf::0                  35836                       # What write queue length does an incoming req see
system.mem_ctrls1.wrQLenPdf::1                  36857                       # What write queue length does an incoming req see
system.mem_ctrls1.wrQLenPdf::2                  37167                       # What write queue length does an incoming req see
system.mem_ctrls1.wrQLenPdf::3                  37422                       # What write queue length does an incoming req see
system.mem_ctrls1.wrQLenPdf::4                  37615                       # What write queue length does an incoming req see
system.mem_ctrls1.wrQLenPdf::5                   5454                       # What write queue length does an incoming req see
system.mem_ctrls1.wrQLenPdf::6                   5824                       # What write queue length does an incoming req see
system.mem_ctrls1.wrQLenPdf::7                   5667                       # What write queue length does an incoming req see
system.mem_ctrls1.bytesPerActivate::samples       126184                       # Bytes accessed per row activation
system.mem_ctrls1.bytesPerActivate::mean   267.200913                       # Bytes accessed per row activation
system.mem_ctrls1.bytesPerActivate::gmean   206.951707                       # Bytes accessed per row activation
system.mem_ctrls1.bytesPerActivate::stdev   197.986640                       # Bytes accessed per row activation
system.mem_ctrls1.bytesPerActivate::0-127        25361     20.10%     20.10% # Bytes accessed per row activation
system.mem_ctrls1.bytesPerActivate::128-255        29665     23.51%     43.61% # Bytes accessed per row activation
system.mem_ctrls1.bytesPerActivate::256-383        53022     42.02%     85.63% # Bytes accessed per row activation
system.mem_ctrls1.bytesPerActivate::384-511         5895      4.67%     90.30% # Bytes accessed per row activation
system.mem_ctrls1.bytesPerActivate::512-639         4357      3.45%     93.75% # Bytes accessed per row activation
system.mem_ctrls1.bytesPerActivate::640-767         2301      1.82%     95.58% # Bytes accessed per row activation
system.mem_ctrls1.bytesPerActivate::768-895         1475      1.17%     96.74% # Bytes accessed per row activation
system.mem_ctrls1.bytesPerActivate::896-1023         1051      0.83%     97.58% # Bytes accessed per row activation
system.mem_ctrls1.bytesPerActivate::1024-1151         3057      2.42%    100.00% # Bytes accessed per row activation
system.mem_ctrls1.bytesPerActivate::total       126184                       # Bytes accessed per row activation
system.mem_ctrls1.rdPerTurnAround::samples        36140                       # Reads before turning the bus around for writes
system.mem_ctrls1.rdPerTurnAround::mean      8.992363                       # Reads before turning the bus around for writes
system.mem_ctrls1.rdPerTurnAround::stdev    21.123916                       # Reads before turning the bus around for writes
system.mem_ctrls1.rdPerTurnAround::0-127        36102     99.89%     99.89% # Reads before turning the bus around for writes
system.mem_ctrls1.rdPerTurnAround::128-255           36      0.10%     99.99% # Reads before turning the bus around for writes
system.mem_ctrls1.rdPerTurnAround::1152-1279            1      0.00%    100.00% # Reads before turning the bus around for writes
system.mem_ctrls1.rdPerTurnAround::2816-2943            1      0.00%    100.00% # Reads before turning the bus around for writes
system.mem_ctrls1.rdPerTurnAround::total        36140                       # Reads before turning the bus around for writes
system.mem_ctrls1.wrPerTurnAround::samples        36140                       # Writes before turning the bus around for reads
system.mem_ctrls1.wrPerTurnAround::mean      5.585003                       # Writes before turning the bus around for reads
system.mem_ctrls1.wrPerTurnAround::gmean     5.393906                       # Writes before turning the bus around for reads
system.mem_ctrls1.wrPerTurnAround::stdev     1.912658                       # Writes before turning the bus around for reads
system.mem_ctrls1.wrPerTurnAround::4-7          32849     90.89%     90.89% # Writes before turning the bus around for reads
system.mem_ctrls1.wrPerTurnAround::8-11          2119      5.86%     96.76% # Writes before turning the bus around for reads
system.mem_ctrls1.wrPerTurnAround::12-15          743      2.06%     98.81% # Writes before turning the bus around for reads
system.mem_ctrls1.wrPerTurnAround::16-19          429      1.19%    100.00% # Writes before turning the bus around for reads
system.mem_ctrls1.wrPerTurnAround::total        36140                       # Writes before turning the bus around for reads
system.mem_ctrls1.totQLat                 28692597258                       # Total ticks spent queuing
system.mem_ctrls1.totMemAccLat            34786047258                       # Total ticks spent from burst creation until serviced by the DRAM
system.mem_ctrls1.totBusLat                1624920000                       # Total ticks spent in databus transfers
system.mem_ctrls1.avgQLat                    88289.26                       # Average queueing delay per DRAM burst
system.mem_ctrls1.avgBusLat                   5000.00                       # Average bus latency per DRAM burst
system.mem_ctrls1.avgMemAccLat              107039.26                       # Average memory access latency per DRAM burst
system.mem_ctrls1.avgRdBW                      159.15                       # Average DRAM read bandwidth in MiByte/s
system.mem_ctrls1.avgWrBW                       98.85                       # Average achieved write bandwidth in MiByte/s
system.mem_ctrls1.avgRdBWSys                   159.16                       # Average system read bandwidth in MiByte/s
system.mem_ctrls1.avgWrBWSys                    98.85                       # Average system write bandwidth in MiByte/s
system.mem_ctrls1.peakBW                     12800.00                       # Theoretical peak bandwidth in MiByte/s
system.mem_ctrls1.busUtil                        2.02                       # Data bus utilization in percentage
system.mem_ctrls1.busUtilRead                    1.24                       # Data bus utilization in percentage for reads
system.mem_ctrls1.busUtilWrite                   0.77                       # Data bus utilization in percentage for writes
system.mem_ctrls1.avgRdQLen                      1.23                       # Average read queue length when enqueuing
system.mem_ctrls1.avgWrQLen                      2.98                       # Average write queue length when enqueuing
system.mem_ctrls1.readRowHits                  255741                       # Number of row buffer hits during reads
system.mem_ctrls1.writeRowHits                 144898                       # Number of row buffer hits during writes
system.mem_ctrls1.readRowHitRate                78.69                       # Row buffer hit rate for reads
system.mem_ctrls1.writeRowHitRate               71.79                       # Row buffer hit rate for writes
system.mem_ctrls1.avgGap                    248050.27                       # Average gap between requests
system.mem_ctrls1.pageHitRate                   76.05                       # Row buffer hit rate, read and write combined
system.mem_ctrls1.memoryStateTime::IDLE   28549072750                       # Time in different power states
system.mem_ctrls1.memoryStateTime::REF     4363840000                       # Time in different power states
system.mem_ctrls1.memoryStateTime::PRE_PDN            0                       # Time in different power states
system.mem_ctrls1.memoryStateTime::ACT    97772005750                       # Time in different power states
system.mem_ctrls1.memoryStateTime::ACT_PDN            0                       # Time in different power states
system.mem_ctrls1.actEnergy::0              485042040                       # Energy for activate commands per rank (pJ)
system.mem_ctrls1.actEnergy::1              468909000                       # Energy for activate commands per rank (pJ)
system.mem_ctrls1.preEnergy::0              264655875                       # Energy for precharge commands per rank (pJ)
system.mem_ctrls1.preEnergy::1              255853125                       # Energy for precharge commands per rank (pJ)
system.mem_ctrls1.readEnergy::0            1275783600                       # Energy for read commands per rank (pJ)
system.mem_ctrls1.readEnergy::1            1259083800                       # Energy for read commands per rank (pJ)
system.mem_ctrls1.writeEnergy::0            656877600                       # Energy for write commands per rank (pJ)
system.mem_ctrls1.writeEnergy::1            651026160                       # Energy for write commands per rank (pJ)
system.mem_ctrls1.refreshEnergy::0         8535671040                       # Energy for refresh commands per rank (pJ)
system.mem_ctrls1.refreshEnergy::1         8535671040                       # Energy for refresh commands per rank (pJ)
system.mem_ctrls1.actBackEnergy::0        49132795590                       # Energy for active background per rank (pJ)
system.mem_ctrls1.actBackEnergy::1        48188348055                       # Energy for active background per rank (pJ)
system.mem_ctrls1.preBackEnergy::0        35311864500                       # Energy for precharge background per rank (pJ)
system.mem_ctrls1.preBackEnergy::1        36140327250                       # Energy for precharge background per rank (pJ)
system.mem_ctrls1.totalEnergy::0          95662690245                       # Total energy per rank (pJ)
system.mem_ctrls1.totalEnergy::1          95499218430                       # Total energy per rank (pJ)
system.mem_ctrls1.averagePower::0          732.011512                       # Core power per rank (mW)
system.mem_ctrls1.averagePower::1          730.760625                       # Core power per rank (mW)
system.mem_ctrls2.bytes_read::ruby.dir_cntrl2     20798016                       # Number of bytes read from this memory
system.mem_ctrls2.bytes_read::total          20798016                       # Number of bytes read from this memory
system.mem_ctrls2.bytes_written::ruby.dir_cntrl2     12918528                       # Number of bytes written to this memory
system.mem_ctrls2.bytes_written::total       12918528                       # Number of bytes written to this memory
system.mem_ctrls2.num_reads::ruby.dir_cntrl2       324969                       # Number of read requests responded to by this memory
system.mem_ctrls2.num_reads::total             324969                       # Number of read requests responded to by this memory
system.mem_ctrls2.num_writes::ruby.dir_cntrl2       201852                       # Number of write requests responded to by this memory
system.mem_ctrls2.num_writes::total            201852                       # Number of write requests responded to by this memory
system.mem_ctrls2.bw_read::ruby.dir_cntrl2    159145988                       # Total read bandwidth from this memory (bytes/s)
system.mem_ctrls2.bw_read::total            159145988                       # Total read bandwidth from this memory (bytes/s)
system.mem_ctrls2.bw_write::ruby.dir_cntrl2     98852309                       # Write bandwidth from this memory (bytes/s)
system.mem_ctrls2.bw_write::total            98852309                       # Write bandwidth from this memory (bytes/s)
system.mem_ctrls2.bw_total::ruby.dir_cntrl2    257998296                       # Total bandwidth to/from this memory (bytes/s)
system.mem_ctrls2.bw_total::total           257998296                       # Total bandwidth to/from this memory (bytes/s)
system.mem_ctrls2.readReqs                     324969                       # Number of read requests accepted
system.mem_ctrls2.writeReqs                    201852                       # Number of write requests accepted
system.mem_ctrls2.readBursts                   324969                       # Number of DRAM read bursts, including those serviced by the write queue
system.mem_ctrls2.writeBursts                  201852                       # Number of DRAM write bursts, including those merged in the write queue
system.mem_ctrls2.bytesReadDRAM              20797056                       # Total number of bytes read from DRAM
system.mem_ctrls2.bytesReadWrQ                    960                       # Total number of bytes read from write queue
system.mem_ctrls2.bytesWritten               12918336                       # Total number of bytes written to DRAM
system.mem_ctrls2.bytesReadSys               20798016                       # Total read bytes from the system interface side
system.mem_ctrls2.bytesWrittenSys            12918528                       # Total written bytes from the system interface side
system.mem_ctrls2.servicedByWrQ                    15                       # Number of DRAM read bursts serviced by the write queue
system.mem_ctrls2.mergedWrBursts                    0                       # Number of DRAM write bursts merged with an existing one
system.mem_ctrls2.neitherReadNorWriteReqs            0                       # Number of requests that are neither read nor write
system.mem_ctrls2.perBankRdBursts::0            20056                       # Per bank write bursts
system.mem_ctrls2.perBankRdBursts::1            20678                       # Per bank write bursts
system.mem_ctrls2.perBankRdBursts::2            20244                       # Per bank write bursts
system.mem_ctrls2.perBankRdBursts::3            20730                       # Per bank write bursts
system.mem_ctrls2.perBankRdBursts::4            20381                       # Per bank write bursts
system.mem_ctrls2.perBankRdBursts::5            20529                       # Per bank write bursts
system.mem_ctrls2.perBankRdBursts::6            20418                       # Per bank write bursts
system.mem_ctrls2.perBankRdBursts::7            20490                       # Per bank write bursts
system.mem_ctrls2.perBankRdBursts::8            20154                       # Per bank write bursts
system.mem_ctrls2.perBankRdBursts::9            20392                       # Per bank write bursts
system.mem_ctrls2.perBankRdBursts::10           20158                       # Per bank write bursts
system.mem_ctrls2.perBankRdBursts::11           20587                       # Per bank write bursts
system.mem_ctrls2.perBankRdBursts::12           20034                       # Per bank write bursts
system.mem_ctrls2.perBankRdBursts::13           19857                       # Per bank write bursts
system.mem_ctrls2.perBankRdBursts::14           20077                       # Per bank write bursts
system.mem_ctrls2.perBankRdBursts::15           20169                       # Per bank write bursts
system.mem_ctrls2.perBankWrBursts::0            12677                       # Per bank write bursts
system.mem_ctrls2.perBankWrBursts::1            12644                       # Per bank write bursts
system.mem_ctrls2.perBankWrBursts::2            12542                       # Per bank write bursts
system.mem_ctrls2.perBankWrBursts::3            12765                       # Per bank write bursts
system.mem_ctrls2.perBankWrBursts::4            12596                       # Per bank write bursts
system.mem_ctrls2.perBankWrBursts::5            12702                       # Per bank write bursts
system.mem_ctrls2.perBankWrBursts::6            12638                       # Per bank write bursts
system.mem_ctrls2.perBankWrBursts::7            12794                       # Per bank write bursts
system.mem_ctrls2.perBankWrBursts::8            12512                       # Per bank write bursts
system.mem_ctrls2.perBankWrBursts::9            12721                       # Per bank write bursts
system.mem_ctrls2.perBankWrBursts::10           12546                       # Per bank write bursts
system.mem_ctrls2.perBankWrBursts::11           12498                       # Per bank write bursts
system.mem_ctrls2.perBankWrBursts::12           12468                       # Per bank write bursts
system.mem_ctrls2.perBankWrBursts::13           12455                       # Per bank write bursts
system.mem_ctrls2.perBankWrBursts::14           12708                       # Per bank write bursts
system.mem_ctrls2.perBankWrBursts::15           12583                       # Per bank write bursts
system.mem_ctrls2.numRdRetry                    55061                       # Number of times read queue was full causing retry
system.mem_ctrls2.numWrRetry                     2491                       # Number of times write queue was full causing retry
system.mem_ctrls2.totGap                 130685038500                       # Total gap between requests
system.mem_ctrls2.readPktSize::0                    0                       # Read request sizes (log2)
system.mem_ctrls2.readPktSize::1                    0                       # Read request sizes (log2)
system.mem_ctrls2.readPktSize::2                    0                       # Read request sizes (log2)
system.mem_ctrls2.readPktSize::3                    0                       # Read request sizes (log2)
system.mem_ctrls2.readPktSize::4                    0                       # Read request sizes (log2)
system.mem_ctrls2.readPktSize::5                    0                       # Read request sizes (log2)
system.mem_ctrls2.readPktSize::6               324969                       # Read request sizes (log2)
system.mem_ctrls2.writePktSize::0                   0                       # Write request sizes (log2)
system.mem_ctrls2.writePktSize::1                   0                       # Write request sizes (log2)
system.mem_ctrls2.writePktSize::2                   0                       # Write request sizes (log2)
system.mem_ctrls2.writePktSize::3                   0                       # Write request sizes (log2)
system.mem_ctrls2.writePktSize::4                   0                       # Write request sizes (log2)
system.mem_ctrls2.writePktSize::5                   0                       # Write request sizes (log2)
system.mem_ctrls2.writePktSize::6              201852                       # Write request sizes (log2)
system.mem_ctrls2.rdQLenPdf::0                 171355                       # What read queue length does an incoming req see
system.mem_ctrls2.rdQLenPdf::1                   1649                       # What read queue length does an incoming req see
system.mem_ctrls2.rdQLenPdf::2                   1522                       # What read queue length does an incoming req see
system.mem_ctrls2.rdQLenPdf::3                   1595                       # What read queue length does an incoming req see
system.mem_ctrls2.rdQLenPdf::4                   1866                       # What read queue length does an incoming req see
system.mem_ctrls2.rdQLenPdf::5                   2061                       # What read queue length does an incoming req see
system.mem_ctrls2.rdQLenPdf::6                   2279                       # What read queue length does an incoming req see
system.mem_ctrls2.rdQLenPdf::7                   2382                       # What read queue length does an incoming req see
system.mem_ctrls2.rdQLenPdf::8                   2600                       # What read queue length does an incoming req see
system.mem_ctrls2.rdQLenPdf::9                   2657                       # What read queue length does an incoming req see
system.mem_ctrls2.rdQLenPdf::10                  3001                       # What read queue length does an incoming req see
system.mem_ctrls2.rdQLenPdf::11                  3116                       # What read queue length does an incoming req see
system.mem_ctrls2.rdQLenPdf::12                  3192                       # What read queue length does an incoming req see
system.mem_ctrls2.rdQLenPdf::13                  3417                       # What read queue length does an incoming req see
system.mem_ctrls2.rdQLenPdf::14                  3354                       # What read queue length does an incoming req see
system.mem_ctrls2.rdQLenPdf::15                  3352                       # What read queue length does an incoming req see
system.mem_ctrls2.rdQLenPdf::16                  3441                       # What read queue length does an incoming req see
system.mem_ctrls2.rdQLenPdf::17                  3577                       # What read queue length does an incoming req see
system.mem_ctrls2.rdQLenPdf::18                  3485                       # What read queue length does an incoming req see
system.mem_ctrls2.rdQLenPdf::19                  3591                       # What read queue length does an incoming req see
system.mem_ctrls2.rdQLenPdf::20                  3682                       # What read queue length does an incoming req see
system.mem_ctrls2.rdQLenPdf::21                  3705                       # What read queue length does an incoming req see
system.mem_ctrls2.rdQLenPdf::22                  3728                       # What read queue length does an incoming req see
system.mem_ctrls2.rdQLenPdf::23                  3748                       # What read queue length does an incoming req see
system.mem_ctrls2.rdQLenPdf::24                  3747                       # What read queue length does an incoming req see
system.mem_ctrls2.rdQLenPdf::25                  3814                       # What read queue length does an incoming req see
system.mem_ctrls2.rdQLenPdf::26                  3925                       # What read queue length does an incoming req see
system.mem_ctrls2.rdQLenPdf::27                  3836                       # What read queue length does an incoming req see
system.mem_ctrls2.rdQLenPdf::28                  3927                       # What read queue length does an incoming req see
system.mem_ctrls2.rdQLenPdf::29                  3976                       # What read queue length does an incoming req see
system.mem_ctrls2.rdQLenPdf::30                  4077                       # What read queue length does an incoming req see
system.mem_ctrls2.rdQLenPdf::31                 59297                       # What read queue length does an incoming req see
system.mem_ctrls2.wrQLenPdf::0                  35827                       # What write queue length does an incoming req see
system.mem_ctrls2.wrQLenPdf::1                  36851                       # What write queue length does an incoming req see
system.mem_ctrls2.wrQLenPdf::2                  37192                       # What write queue length does an incoming req see
system.mem_ctrls2.wrQLenPdf::3                  37465                       # What write queue length does an incoming req see
system.mem_ctrls2.wrQLenPdf::4                  37659                       # What write queue length does an incoming req see
system.mem_ctrls2.wrQLenPdf::5                   5381                       # What write queue length does an incoming req see
system.mem_ctrls2.wrQLenPdf::6                   5820                       # What write queue length does an incoming req see
system.mem_ctrls2.wrQLenPdf::7                   5657                       # What write queue length does an incoming req see
system.mem_ctrls2.bytesPerActivate::samples       126000                       # Bytes accessed per row activation
system.mem_ctrls2.bytesPerActivate::mean   267.581968                       # Bytes accessed per row activation
system.mem_ctrls2.bytesPerActivate::gmean   207.335506                       # Bytes accessed per row activation
system.mem_ctrls2.bytesPerActivate::stdev   197.684412                       # Bytes accessed per row activation
system.mem_ctrls2.bytesPerActivate::0-127        25473     20.22%     20.22% # Bytes accessed per row activation
system.mem_ctrls2.bytesPerActivate::128-255        28793     22.85%     43.07% # Bytes accessed per row activation
system.mem_ctrls2.bytesPerActivate::256-383        53658     42.59%     85.65% # Bytes accessed per row activation
system.mem_ctrls2.bytesPerActivate::384-511         5808      4.61%     90.26% # Bytes accessed per row activation
system.mem_ctrls2.bytesPerActivate::512-639         4460      3.54%     93.80% # Bytes accessed per row activation
system.mem_ctrls2.bytesPerActivate::640-767         2293      1.82%     95.62% # Bytes accessed per row activation
system.mem_ctrls2.bytesPerActivate::768-895         1426      1.13%     96.75% # Bytes accessed per row activation
system.mem_ctrls2.bytesPerActivate::896-1023          994      0.79%     97.54% # Bytes accessed per row activation
system.mem_ctrls2.bytesPerActivate::1024-1151         3095      2.46%    100.00% # Bytes accessed per row activation
system.mem_ctrls2.bytesPerActivate::total       126000                       # Bytes accessed per row activation
system.mem_ctrls2.rdPerTurnAround::samples        36124                       # Reads before turning the bus around for writes
system.mem_ctrls2.rdPerTurnAround::mean      8.994602                       # Reads before turning the bus around for writes
system.mem_ctrls2.rdPerTurnAround::stdev    21.229662                       # Reads before turning the bus around for writes
system.mem_ctrls2.rdPerTurnAround::0-127        36082     99.88%     99.88% # Reads before turning the bus around for writes
system.mem_ctrls2.rdPerTurnAround::128-255           40      0.11%     99.99% # Reads before turning the bus around for writes
system.mem_ctrls2.rdPerTurnAround::1152-1279            1      0.00%    100.00% # Reads before turning the bus around for writes
system.mem_ctrls2.rdPerTurnAround::2816-2943            1      0.00%    100.00% # Reads before turning the bus around for writes
system.mem_ctrls2.rdPerTurnAround::total        36124                       # Reads before turning the bus around for writes
system.mem_ctrls2.wrPerTurnAround::samples        36124                       # Writes before turning the bus around for reads
system.mem_ctrls2.wrPerTurnAround::mean      5.587670                       # Writes before turning the bus around for reads
system.mem_ctrls2.wrPerTurnAround::gmean     5.394886                       # Writes before turning the bus around for reads
system.mem_ctrls2.wrPerTurnAround::stdev     1.923036                       # Writes before turning the bus around for reads
system.mem_ctrls2.wrPerTurnAround::4-7          32808     90.82%     90.82% # Writes before turning the bus around for reads
system.mem_ctrls2.wrPerTurnAround::8-11          2148      5.95%     96.77% # Writes before turning the bus around for reads
system.mem_ctrls2.wrPerTurnAround::12-15          736      2.04%     98.80% # Writes before turning the bus around for reads
system.mem_ctrls2.wrPerTurnAround::16-19          432      1.20%    100.00% # Writes before turning the bus around for reads
system.mem_ctrls2.wrPerTurnAround::total        36124                       # Writes before turning the bus around for reads
system.mem_ctrls2.totQLat                 28237879608                       # Total ticks spent queuing
system.mem_ctrls2.totMemAccLat            34330767108                       # Total ticks spent from burst creation until serviced by the DRAM
system.mem_ctrls2.totBusLat                1624770000                       # Total ticks spent in databus transfers
system.mem_ctrls2.avgQLat                    86898.08                       # Average queueing delay per DRAM burst
system.mem_ctrls2.avgBusLat                   5000.00                       # Average bus latency per DRAM burst
system.mem_ctrls2.avgMemAccLat              105648.08                       # Average memory access latency per DRAM burst
system.mem_ctrls2.avgRdBW                      159.14                       # Average DRAM read bandwidth in MiByte/s
system.mem_ctrls2.avgWrBW                       98.85                       # Average achieved write bandwidth in MiByte/s
system.mem_ctrls2.avgRdBWSys                   159.15                       # Average system read bandwidth in MiByte/s
system.mem_ctrls2.avgWrBWSys                    98.85                       # Average system write bandwidth in MiByte/s
system.mem_ctrls2.peakBW                     12800.00                       # Theoretical peak bandwidth in MiByte/s
system.mem_ctrls2.busUtil                        2.02                       # Data bus utilization in percentage
system.mem_ctrls2.busUtilRead                    1.24                       # Data bus utilization in percentage for reads
system.mem_ctrls2.busUtilWrite                   0.77                       # Data bus utilization in percentage for writes
system.mem_ctrls2.avgRdQLen                      1.23                       # Average read queue length when enqueuing
system.mem_ctrls2.avgWrQLen                      2.95                       # Average write queue length when enqueuing
system.mem_ctrls2.readRowHits                  255535                       # Number of row buffer hits during reads
system.mem_ctrls2.writeRowHits                 145267                       # Number of row buffer hits during writes
system.mem_ctrls2.readRowHitRate                78.64                       # Row buffer hit rate for reads
system.mem_ctrls2.writeRowHitRate               71.97                       # Row buffer hit rate for writes
system.mem_ctrls2.avgGap                    248063.46                       # Average gap between requests
system.mem_ctrls2.pageHitRate                   76.08                       # Row buffer hit rate, read and write combined
system.mem_ctrls2.memoryStateTime::IDLE   28403914750                       # Time in different power states
system.mem_ctrls2.memoryStateTime::REF     4363840000                       # Time in different power states
system.mem_ctrls2.memoryStateTime::PRE_PDN            0                       # Time in different power states
system.mem_ctrls2.memoryStateTime::ACT    97917309750                       # Time in different power states
system.mem_ctrls2.memoryStateTime::ACT_PDN            0                       # Time in different power states
system.mem_ctrls2.actEnergy::0              484180200                       # Energy for activate commands per rank (pJ)
system.mem_ctrls2.actEnergy::1              468379800                       # Energy for activate commands per rank (pJ)
system.mem_ctrls2.preEnergy::0              264185625                       # Energy for precharge commands per rank (pJ)
system.mem_ctrls2.preEnergy::1              255564375                       # Energy for precharge commands per rank (pJ)
system.mem_ctrls2.readEnergy::0            1275495000                       # Energy for read commands per rank (pJ)
system.mem_ctrls2.readEnergy::1            1259138400                       # Energy for read commands per rank (pJ)
system.mem_ctrls2.writeEnergy::0            656799840                       # Energy for write commands per rank (pJ)
system.mem_ctrls2.writeEnergy::1            651181680                       # Energy for write commands per rank (pJ)
system.mem_ctrls2.refreshEnergy::0         8535671040                       # Energy for refresh commands per rank (pJ)
system.mem_ctrls2.refreshEnergy::1         8535671040                       # Energy for refresh commands per rank (pJ)
system.mem_ctrls2.actBackEnergy::0        48864414510                       # Energy for active background per rank (pJ)
system.mem_ctrls2.actBackEnergy::1        47932609860                       # Energy for active background per rank (pJ)
system.mem_ctrls2.preBackEnergy::0        35547286500                       # Energy for precharge background per rank (pJ)
system.mem_ctrls2.preBackEnergy::1        36364659000                       # Energy for precharge background per rank (pJ)
system.mem_ctrls2.totalEnergy::0          95628032715                       # Total energy per rank (pJ)
system.mem_ctrls2.totalEnergy::1          95467204155                       # Total energy per rank (pJ)
system.mem_ctrls2.averagePower::0          731.746313                       # Core power per rank (mW)
system.mem_ctrls2.averagePower::1          730.515652                       # Core power per rank (mW)
system.mem_ctrls3.bytes_read::ruby.dir_cntrl3     20776960                       # Number of bytes read from this memory
system.mem_ctrls3.bytes_read::total          20776960                       # Number of bytes read from this memory
system.mem_ctrls3.bytes_written::ruby.dir_cntrl3     12917120                       # Number of bytes written to this memory
system.mem_ctrls3.bytes_written::total       12917120                       # Number of bytes written to this memory
system.mem_ctrls3.num_reads::ruby.dir_cntrl3       324640                       # Number of read requests responded to by this memory
system.mem_ctrls3.num_reads::total             324640                       # Number of read requests responded to by this memory
system.mem_ctrls3.num_writes::ruby.dir_cntrl3       201830                       # Number of write requests responded to by this memory
system.mem_ctrls3.num_writes::total            201830                       # Number of write requests responded to by this memory
system.mem_ctrls3.bw_read::ruby.dir_cntrl3    158984868                       # Total read bandwidth from this memory (bytes/s)
system.mem_ctrls3.bw_read::total            158984868                       # Total read bandwidth from this memory (bytes/s)
system.mem_ctrls3.bw_write::ruby.dir_cntrl3     98841535                       # Write bandwidth from this memory (bytes/s)
system.mem_ctrls3.bw_write::total            98841535                       # Write bandwidth from this memory (bytes/s)
system.mem_ctrls3.bw_total::ruby.dir_cntrl3    257826402                       # Total bandwidth to/from this memory (bytes/s)
system.mem_ctrls3.bw_total::total           257826402                       # Total bandwidth to/from this memory (bytes/s)
system.mem_ctrls3.readReqs                     324640                       # Number of read requests accepted
system.mem_ctrls3.writeReqs                    201830                       # Number of write requests accepted
system.mem_ctrls3.readBursts                   324640                       # Number of DRAM read bursts, including those serviced by the write queue
system.mem_ctrls3.writeBursts                  201830                       # Number of DRAM write bursts, including those merged in the write queue
system.mem_ctrls3.bytesReadDRAM              20776128                       # Total number of bytes read from DRAM
system.mem_ctrls3.bytesReadWrQ                    832                       # Total number of bytes read from write queue
system.mem_ctrls3.bytesWritten               12917056                       # Total number of bytes written to DRAM
system.mem_ctrls3.bytesReadSys               20776960                       # Total read bytes from the system interface side
system.mem_ctrls3.bytesWrittenSys            12917120                       # Total written bytes from the system interface side
system.mem_ctrls3.servicedByWrQ                    13                       # Number of DRAM read bursts serviced by the write queue
system.mem_ctrls3.mergedWrBursts                    0                       # Number of DRAM write bursts merged with an existing one
system.mem_ctrls3.neitherReadNorWriteReqs            0                       # Number of requests that are neither read nor write
system.mem_ctrls3.perBankRdBursts::0            20050                       # Per bank write bursts
system.mem_ctrls3.perBankRdBursts::1            20650                       # Per bank write bursts
system.mem_ctrls3.perBankRdBursts::2            20160                       # Per bank write bursts
system.mem_ctrls3.perBankRdBursts::3            20704                       # Per bank write bursts
system.mem_ctrls3.perBankRdBursts::4            20313                       # Per bank write bursts
system.mem_ctrls3.perBankRdBursts::5            20521                       # Per bank write bursts
system.mem_ctrls3.perBankRdBursts::6            20422                       # Per bank write bursts
system.mem_ctrls3.perBankRdBursts::7            20476                       # Per bank write bursts
system.mem_ctrls3.perBankRdBursts::8            20145                       # Per bank write bursts
system.mem_ctrls3.perBankRdBursts::9            20381                       # Per bank write bursts
system.mem_ctrls3.perBankRdBursts::10           20194                       # Per bank write bursts
system.mem_ctrls3.perBankRdBursts::11           20539                       # Per bank write bursts
system.mem_ctrls3.perBankRdBursts::12           19977                       # Per bank write bursts
system.mem_ctrls3.perBankRdBursts::13           19848                       # Per bank write bursts
system.mem_ctrls3.perBankRdBursts::14           20107                       # Per bank write bursts
system.mem_ctrls3.perBankRdBursts::15           20140                       # Per bank write bursts
system.mem_ctrls3.perBankWrBursts::0            12683                       # Per bank write bursts
system.mem_ctrls3.perBankWrBursts::1            12634                       # Per bank write bursts
system.mem_ctrls3.perBankWrBursts::2            12550                       # Per bank write bursts
system.mem_ctrls3.perBankWrBursts::3            12755                       # Per bank write bursts
system.mem_ctrls3.perBankWrBursts::4            12595                       # Per bank write bursts
system.mem_ctrls3.perBankWrBursts::5            12705                       # Per bank write bursts
system.mem_ctrls3.perBankWrBursts::6            12634                       # Per bank write bursts
system.mem_ctrls3.perBankWrBursts::7            12787                       # Per bank write bursts
system.mem_ctrls3.perBankWrBursts::8            12509                       # Per bank write bursts
system.mem_ctrls3.perBankWrBursts::9            12724                       # Per bank write bursts
system.mem_ctrls3.perBankWrBursts::10           12546                       # Per bank write bursts
system.mem_ctrls3.perBankWrBursts::11           12504                       # Per bank write bursts
system.mem_ctrls3.perBankWrBursts::12           12464                       # Per bank write bursts
system.mem_ctrls3.perBankWrBursts::13           12460                       # Per bank write bursts
system.mem_ctrls3.perBankWrBursts::14           12714                       # Per bank write bursts
system.mem_ctrls3.perBankWrBursts::15           12565                       # Per bank write bursts
system.mem_ctrls3.numRdRetry                    50962                       # Number of times read queue was full causing retry
system.mem_ctrls3.numWrRetry                     2310                       # Number of times write queue was full causing retry
system.mem_ctrls3.totGap                 130684308000                       # Total gap between requests
system.mem_ctrls3.readPktSize::0                    0                       # Read request sizes (log2)
system.mem_ctrls3.readPktSize::1                    0                       # Read request sizes (log2)
system.mem_ctrls3.readPktSize::2                    0                       # Read request sizes (log2)
system.mem_ctrls3.readPktSize::3                    0                       # Read request sizes (log2)
system.mem_ctrls3.readPktSize::4                    0                       # Read request sizes (log2)
system.mem_ctrls3.readPktSize::5                    0                       # Read request sizes (log2)
system.mem_ctrls3.readPktSize::6               324640                       # Read request sizes (log2)
system.mem_ctrls3.writePktSize::0                   0                       # Write request sizes (log2)
system.mem_ctrls3.writePktSize::1                   0                       # Write request sizes (log2)
system.mem_ctrls3.writePktSize::2                   0                       # Write request sizes (log2)
system.mem_ctrls3.writePktSize::3                   0                       # Write request sizes (log2)
system.mem_ctrls3.writePktSize::4                   0                       # Write request sizes (log2)
system.mem_ctrls3.writePktSize::5                   0                       # Write request sizes (log2)
system.mem_ctrls3.writePktSize::6              201830                       # Write request sizes (log2)
system.mem_ctrls3.rdQLenPdf::0                 170954                       # What read queue length does an incoming req see
system.mem_ctrls3.rdQLenPdf::1                   1731                       # What read queue length does an incoming req see
system.mem_ctrls3.rdQLenPdf::2                   1550                       # What read queue length does an incoming req see
system.mem_ctrls3.rdQLenPdf::3                   1613                       # What read queue length does an incoming req see
system.mem_ctrls3.rdQLenPdf::4                   1818                       # What read queue length does an incoming req see
system.mem_ctrls3.rdQLenPdf::5                   2007                       # What read queue length does an incoming req see
system.mem_ctrls3.rdQLenPdf::6                   2199                       # What read queue length does an incoming req see
system.mem_ctrls3.rdQLenPdf::7                   2542                       # What read queue length does an incoming req see
system.mem_ctrls3.rdQLenPdf::8                   2678                       # What read queue length does an incoming req see
system.mem_ctrls3.rdQLenPdf::9                   2986                       # What read queue length does an incoming req see
system.mem_ctrls3.rdQLenPdf::10                  3080                       # What read queue length does an incoming req see
system.mem_ctrls3.rdQLenPdf::11                  3166                       # What read queue length does an incoming req see
system.mem_ctrls3.rdQLenPdf::12                  3355                       # What read queue length does an incoming req see
system.mem_ctrls3.rdQLenPdf::13                  3321                       # What read queue length does an incoming req see
system.mem_ctrls3.rdQLenPdf::14                  3429                       # What read queue length does an incoming req see
system.mem_ctrls3.rdQLenPdf::15                  3578                       # What read queue length does an incoming req see
system.mem_ctrls3.rdQLenPdf::16                  3572                       # What read queue length does an incoming req see
system.mem_ctrls3.rdQLenPdf::17                  3641                       # What read queue length does an incoming req see
system.mem_ctrls3.rdQLenPdf::18                  3717                       # What read queue length does an incoming req see
system.mem_ctrls3.rdQLenPdf::19                  3894                       # What read queue length does an incoming req see
system.mem_ctrls3.rdQLenPdf::20                  3828                       # What read queue length does an incoming req see
system.mem_ctrls3.rdQLenPdf::21                  3948                       # What read queue length does an incoming req see
system.mem_ctrls3.rdQLenPdf::22                  4076                       # What read queue length does an incoming req see
system.mem_ctrls3.rdQLenPdf::23                  4010                       # What read queue length does an incoming req see
system.mem_ctrls3.rdQLenPdf::24                  4177                       # What read queue length does an incoming req see
[...]
system.ruby.L2Cache_Controller.S_I.Ack_all::total           32                      
system.ruby.L2Cache_Controller.ISS.Mem_Data |       25516      5.06%      5.06% |       15489      3.07%      8.13% |       15519      3.08%     11.21% |       15473      3.07%     14.28% |       15446      3.06%     17.34% |       15424      3.06%     20.40% |       15432      3.06%     23.46% |       15427      3.06%     26.51% |       15459      3.07%     29.58% |       15478      3.07%     32.65% |       15502      3.07%     35.72% |       15428      3.06%     38.78% |       15435      3.06%     41.84% |       15445      3.06%     44.90% |       15454      3.06%     47.97% |       15416      3.06%     51.02% |       15432      3.06%     54.08% |       15422      3.06%     57.14% |       15445      3.06%     60.20% |       15427      3.06%     63.26% |       15450      3.06%     66.33% |       15465      3.07%     69.39% |       15462      3.07%     72.46% |       15439      3.06%     75.52% |       15453      3.06%     78.58% |       15455      3.06%     81.65% |       15427      3.06%     84.71% |       15414      3.06%     87.76% |       15450      3.06%     90.83% |       15416      3.06%     93.88% |       15414      3.06%     96.94% |       15439      3.06%    100.00%
system.ruby.L2Cache_Controller.ISS.Mem_Data::total       504353                      
system.ruby.L2Cache_Controller.IS.Mem_Data |         503      3.21%      3.21% |         453      2.89%      6.10% |         438      2.79%      8.89% |         449      2.86%     11.75% |         450      2.87%     14.62% |         430      2.74%     17.36% |         472      3.01%     20.37% |         491      3.13%     23.50% |         505      3.22%     26.72% |         445      2.84%     29.56% |         487      3.11%     32.66% |         498      3.18%     35.84% |         551      3.51%     39.35% |         523      3.33%     42.69% |         510      3.25%     45.94% |         492      3.14%     49.08% |         515      3.28%     52.36% |         532      3.39%     55.75% |         529      3.37%     59.12% |         483      3.08%     62.20% |         474      3.02%     65.23% |         523      3.33%     68.56% |         477      3.04%     71.60% |         450      2.87%     74.47% |         519      3.31%     77.78% |         577      3.68%     81.46% |         522      3.33%     84.79% |         479      3.05%     87.84% |         456      2.91%     90.75% |         510      3.25%     94.00% |         487      3.11%     97.11% |         454      2.89%    100.00%
system.ruby.L2Cache_Controller.IS.Mem_Data::total        15684                      
system.ruby.L2Cache_Controller.IM.Mem_Data |       24754      3.13%      3.13% |       24665      3.12%      6.26% |       24674      3.12%      9.38% |       24679      3.13%     12.51% |       24670      3.12%     15.63% |       24674      3.12%     18.76% |       24675      3.12%     21.88% |       24666      3.12%     25.00% |       24681      3.13%     28.13% |       24680      3.13%     31.25% |       24663      3.12%     34.38% |       24687      3.13%     37.50% |       24674      3.12%     40.63% |       24671      3.12%     43.75% |       24669      3.12%     46.88% |       24662      3.12%     50.00% |       24683      3.13%     53.12% |       24680      3.13%     56.25% |       24677      3.12%     59.38% |       24675      3.12%     62.50% |       24689      3.13%     65.63% |       24695      3.13%     68.75% |       24670      3.12%     71.88% |       24674      3.12%     75.00% |       24686      3.13%     78.13% |       24680      3.13%     81.25% |       24683      3.13%     84.38% |       24670      3.12%     87.50% |       24671      3.12%     90.63% |       24672      3.12%     93.75% |       24681      3.13%     96.88% |       24668      3.12%    100.00%
system.ruby.L2Cache_Controller.IM.Mem_Data::total       789698                      
system.ruby.L2Cache_Controller.SS_MB.Exclusive_Unblock |           2      4.17%      4.17% |           4      8.33%     12.50% |           5     10.42%     22.92% |           3      6.25%     29.17% |           0      0.00%     29.17% |           0      0.00%     29.17% |           0      0.00%     29.17% |           0      0.00%     29.17% |           1      2.08%     31.25% |           1      2.08%     33.33% |           0      0.00%     33.33% |           1      2.08%     35.42% |           6     12.50%     47.92% |           0      0.00%     47.92% |           2      4.17%     52.08% |           0      0.00%     52.08% |           0      0.00%     52.08% |           0      0.00%     52.08% |           7     14.58%     66.67% |           5     10.42%     77.08% |           1      2.08%     79.17% |           0      0.00%     79.17% |           0      0.00%     79.17% |           0      0.00%     79.17% |           1      2.08%     81.25% |           1      2.08%     83.33% |           1      2.08%     85.42% |           1      2.08%     87.50% |           5     10.42%     97.92% |           0      0.00%     97.92% |           1      2.08%    100.00% |           0      0.00%    100.00%
system.ruby.L2Cache_Controller.SS_MB.Exclusive_Unblock::total           48                      
system.ruby.L2Cache_Controller.MT_MB.L1_PUTX |           7    100.00%    100.00% |           0      0.00%    100.00% |           0      0.00%    100.00% |           0      0.00%    100.00% |           0      0.00%    100.00% |           0      0.00%    100.00% |           0      0.00%    100.00% |           0      0.00%    100.00% |           0      0.00%    100.00% |           0      0.00%    100.00% |           0      0.00%    100.00% |           0      0.00%    100.00% |           0      0.00%    100.00% |           0      0.00%    100.00% |           0      0.00%    100.00% |           0      0.00%    100.00% |           0      0.00%    100.00% |           0      0.00%    100.00% |           0      0.00%    100.00% |           0      0.00%    100.00% |           0      0.00%    100.00% |           0      0.00%    100.00% |           0      0.00%    100.00% |           0      0.00%    100.00% |           0      0.00%    100.00% |           0      0.00%    100.00% |           0      0.00%    100.00% |           0      0.00%    100.00% |           0      0.00%    100.00% |           0      0.00%    100.00% |           0      0.00%    100.00% |           0      0.00%    100.00%
system.ruby.L2Cache_Controller.MT_MB.L1_PUTX::total            7                      
system.ruby.L2Cache_Controller.MT_MB.Exclusive_Unblock |      171911      9.58%      9.58% |       54288      3.03%     12.61% |       49287      2.75%     15.35% |       52998      2.95%     18.31% |       53514      2.98%     21.29% |       49522      2.76%     24.05% |       45961      2.56%     26.61% |       45967      2.56%     29.17% |       51543      2.87%     32.05% |       49825      2.78%     34.82% |       54070      3.01%     37.84% |       51038      2.84%     40.68% |       48289      2.69%     43.37% |       46921      2.62%     45.99% |       47891      2.67%     48.66% |       46618      2.60%     51.26% |       50581      2.82%     54.08% |       48376      2.70%     56.77% |       49900      2.78%     59.55% |       54014      3.01%     62.56% |       54531      3.04%     65.60% |       63394      3.53%     69.14% |       58008      3.23%     72.37% |       53250      2.97%     75.34% |       53477      2.98%     78.32% |       51452      2.87%     81.18% |       52512      2.93%     84.11% |       52314      2.92%     87.03% |       55510      3.09%     90.12% |       55171      3.07%     93.20% |       63475      3.54%     96.73% |       58598      3.27%    100.00%
system.ruby.L2Cache_Controller.MT_MB.Exclusive_Unblock::total      1794206                      
system.ruby.L2Cache_Controller.MT_IIB.WB_Data |           0      0.00%      0.00% |           0      0.00%      0.00% |           1      7.14%      7.14% |           1      7.14%     14.29% |           1      7.14%     21.43% |           0      0.00%     21.43% |           1      7.14%     28.57% |           0      0.00%     28.57% |           1      7.14%     35.71% |           1      7.14%     42.86% |           1      7.14%     50.00% |           1      7.14%     57.14% |           1      7.14%     64.29% |           0      0.00%     64.29% |           1      7.14%     71.43% |           1      7.14%     78.57% |           1      7.14%     85.71% |           1      7.14%     92.86% |           1      7.14%    100.00% |           0      0.00%    100.00% |           0      0.00%    100.00% |           0      0.00%    100.00% |           0      0.00%    100.00% |           0      0.00%    100.00% |           0      0.00%    100.00% |           0      0.00%    100.00% |           0      0.00%    100.00% |           0      0.00%    100.00% |           0      0.00%    100.00% |           0      0.00%    100.00% |           0      0.00%    100.00% |           0      0.00%    100.00%
system.ruby.L2Cache_Controller.MT_IIB.WB_Data::total           14                      
system.ruby.L2Cache_Controller.MT_IIB.WB_Data_clean |           5    100.00%    100.00% |           0      0.00%    100.00% |           0      0.00%    100.00% |           0      0.00%    100.00% |           0      0.00%    100.00% |           0      0.00%    100.00% |           0      0.00%    100.00% |           0      0.00%    100.00% |           0      0.00%    100.00% |           0      0.00%    100.00% |           0      0.00%    100.00% |           0      0.00%    100.00% |           0      0.00%    100.00% |           0      0.00%    100.00% |           0      0.00%    100.00% |           0      0.00%    100.00% |           0      0.00%    100.00% |           0      0.00%    100.00% |           0      0.00%    100.00% |           0      0.00%    100.00% |           0      0.00%    100.00% |           0      0.00%    100.00% |           0      0.00%    100.00% |           0      0.00%    100.00% |           0      0.00%    100.00% |           0      0.00%    100.00% |           0      0.00%    100.00% |           0      0.00%    100.00% |           0      0.00%    100.00% |           0      0.00%    100.00% |           0      0.00%    100.00% |           0      0.00%    100.00%
system.ruby.L2Cache_Controller.MT_IIB.WB_Data_clean::total            5                      
system.ruby.L2Cache_Controller.MT_IIB.Unblock |           0      0.00%      0.00% |           0      0.00%      0.00% |           0      0.00%      0.00% |           0      0.00%      0.00% |           0      0.00%      0.00% |           0      0.00%      0.00% |           0      0.00%      0.00% |           1     50.00%     50.00% |           0      0.00%     50.00% |           0      0.00%     50.00% |           0      0.00%     50.00% |           0      0.00%     50.00% |           0      0.00%     50.00% |           1     50.00%    100.00% |           0      0.00%    100.00% |           0      0.00%    100.00% |           0      0.00%    100.00% |           0      0.00%    100.00% |           0      0.00%    100.00% |           0      0.00%    100.00% |           0      0.00%    100.00% |           0      0.00%    100.00% |           0      0.00%    100.00% |           0      0.00%    100.00% |           0      0.00%    100.00% |           0      0.00%    100.00% |           0      0.00%    100.00% |           0      0.00%    100.00% |           0      0.00%    100.00% |           0      0.00%    100.00% |           0      0.00%    100.00% |           0      0.00%    100.00%
system.ruby.L2Cache_Controller.MT_IIB.Unblock::total            2                      
system.ruby.L2Cache_Controller.MT_IB.WB_Data |           0      0.00%      0.00% |           0      0.00%      0.00% |           0      0.00%      0.00% |           0      0.00%      0.00% |           0      0.00%      0.00% |           0      0.00%      0.00% |           0      0.00%      0.00% |           1     50.00%     50.00% |           0      0.00%     50.00% |           0      0.00%     50.00% |           0      0.00%     50.00% |           0      0.00%     50.00% |           0      0.00%     50.00% |           1     50.00%    100.00% |           0      0.00%    100.00% |           0      0.00%    100.00% |           0      0.00%    100.00% |           0      0.00%    100.00% |           0      0.00%    100.00% |           0      0.00%    100.00% |           0      0.00%    100.00% |           0      0.00%    100.00% |           0      0.00%    100.00% |           0      0.00%    100.00% |           0      0.00%    100.00% |           0      0.00%    100.00% |           0      0.00%    100.00% |           0      0.00%    100.00% |           0      0.00%    100.00% |           0      0.00%    100.00% |           0      0.00%    100.00% |           0      0.00%    100.00%
system.ruby.L2Cache_Controller.MT_IB.WB_Data::total            2                      
system.ruby.L2Cache_Controller.MT_SB.Unblock |           5     26.32%     26.32% |           0      0.00%     26.32% |           1      5.26%     31.58% |           1      5.26%     36.84% |           1      5.26%     42.11% |           0      0.00%     42.11% |           1      5.26%     47.37% |           0      0.00%     47.37% |           1      5.26%     52.63% |           1      5.26%     57.89% |           1      5.26%     63.16% |           1      5.26%     68.42% |           1      5.26%     73.68% |           0      0.00%     73.68% |           1      5.26%     78.95% |           1      5.26%     84.21% |           1      5.26%     89.47% |           1      5.26%     94.74% |           1      5.26%    100.00% |           0      0.00%    100.00% |           0      0.00%    100.00% |           0      0.00%    100.00% |           0      0.00%    100.00% |           0      0.00%    100.00% |           0      0.00%    100.00% |           0      0.00%    100.00% |           0      0.00%    100.00% |           0      0.00%    100.00% |           0      0.00%    100.00% |           0      0.00%    100.00% |           0      0.00%    100.00% |           0      0.00%    100.00%
system.ruby.L2Cache_Controller.MT_SB.Unblock::total           19                      
system.ruby.SimicsNetworkPortInterface_Controller.MessageSend |       34271     11.58%     11.58% |      147915     50.00%     61.58% |       14040      4.75%     66.33% |       15495      5.24%     71.57% |       14045      4.75%     76.32% |       16252      5.49%     81.81% |       13944      4.71%     86.52% |       15623      5.28%     91.80% |       11324      3.83%     95.63% |       12921      4.37%    100.00% |           0      0.00%    100.00% |           0      0.00%    100.00% |           0      0.00%    100.00% |           0      0.00%    100.00% |           0      0.00%    100.00% |           0      0.00%    100.00% |           0      0.00%    100.00% |           0      0.00%    100.00% |           0      0.00%    100.00% |           0      0.00%    100.00% |           0      0.00%    100.00% |           0      0.00%    100.00% |           0      0.00%    100.00% |           0      0.00%    100.00% |           0      0.00%    100.00% |           0      0.00%    100.00% |           0      0.00%    100.00% |           0      0.00%    100.00% |           0      0.00%    100.00% |           0      0.00%    100.00% |           0      0.00%    100.00% |           0      0.00%    100.00%
system.ruby.SimicsNetworkPortInterface_Controller.MessageSend::total       295830                      
system.ruby.SimicsNetworkPortInterface_Controller.MessageRecv |       34271     11.58%     11.58% |      147915     50.00%     61.58% |       14040      4.75%     66.33% |       15495      5.24%     71.57% |       14045      4.75%     76.32% |       16252      5.49%     81.81% |       13944      4.71%     86.52% |       15623      5.28%     91.80% |       11324      3.83%     95.63% |       12921      4.37%    100.00% |           0      0.00%    100.00% |           0      0.00%    100.00% |           0      0.00%    100.00% |           0      0.00%    100.00% |           0      0.00%    100.00% |           0      0.00%    100.00% |           0      0.00%    100.00% |           0      0.00%    100.00% |           0      0.00%    100.00% |           0      0.00%    100.00% |           0      0.00%    100.00% |           0      0.00%    100.00% |           0      0.00%    100.00% |           0      0.00%    100.00% |           0      0.00%    100.00% |           0      0.00%    100.00% |           0      0.00%    100.00% |           0      0.00%    100.00% |           0      0.00%    100.00% |           0      0.00%    100.00% |           0      0.00%    100.00% |           0      0.00%    100.00%
system.ruby.SimicsNetworkPortInterface_Controller.MessageRecv::total       295830                      
system.ruby.SimicsNetworkPortInterface_Controller.A.MessageSend |       34271     11.58%     11.58% |      147915     50.00%     61.58% |       14040      4.75%     66.33% |       15495      5.24%     71.57% |       14045      4.75%     76.32% |       16252      5.49%     81.81% |       13944      4.71%     86.52% |       15623      5.28%     91.80% |       11324      3.83%     95.63% |       12921      4.37%    100.00% |           0      0.00%    100.00% |           0      0.00%    100.00% |           0      0.00%    100.00% |           0      0.00%    100.00% |           0      0.00%    100.00% |           0      0.00%    100.00% |           0      0.00%    100.00% |           0      0.00%    100.00% |           0      0.00%    100.00% |           0      0.00%    100.00% |           0      0.00%    100.00% |           0      0.00%    100.00% |           0      0.00%    100.00% |           0      0.00%    100.00% |           0      0.00%    100.00% |           0      0.00%    100.00% |           0      0.00%    100.00% |           0      0.00%    100.00% |           0      0.00%    100.00% |           0      0.00%    100.00% |           0      0.00%    100.00% |           0      0.00%    100.00%
system.ruby.SimicsNetworkPortInterface_Controller.A.MessageSend::total       295830                      
system.ruby.SimicsNetworkPortInterface_Controller.A.MessageRecv |       34271     11.58%     11.58% |      147915     50.00%     61.58% |       14040      4.75%     66.33% |       15495      5.24%     71.57% |       14045      4.75%     76.32% |       16252      5.49%     81.81% |       13944      4.71%     86.52% |       15623      5.28%     91.80% |       11324      3.83%     95.63% |       12921      4.37%    100.00% |           0      0.00%    100.00% |           0      0.00%    100.00% |           0      0.00%    100.00% |           0      0.00%    100.00% |           0      0.00%    100.00% |           0      0.00%    100.00% |           0      0.00%    100.00% |           0      0.00%    100.00% |           0      0.00%    100.00% |           0      0.00%    100.00% |           0      0.00%    100.00% |           0      0.00%    100.00% |           0      0.00%    100.00% |           0      0.00%    100.00% |           0      0.00%    100.00% |           0      0.00%    100.00% |           0      0.00%    100.00% |           0      0.00%    100.00% |           0      0.00%    100.00% |           0      0.00%    100.00% |           0      0.00%    100.00% |           0      0.00%    100.00%
system.ruby.SimicsNetworkPortInterface_Controller.A.MessageRecv::total       295830                      
system.switch_cpus.kern.inst.arm                    0                       # number of arm instructions executed
system.switch_cpus.kern.inst.quiesce                0                       # number of quiesce instructions executed

---------- End Simulation Statistics   ----------
