
---------- Begin Simulation Statistics ----------
sim_seconds                                  0.119717                       # Number of seconds simulated
sim_ticks                                119717207000                       # Number of ticks simulated
final_tick                               5295885285500                       # Number of ticks from beginning of simulation (restored from checkpoints and never reset)
sim_freq                                 1000000000000                       # Frequency of simulated ticks
host_inst_rate                                   8886                       # Simulator instruction rate (inst/s)
host_op_rate                                    15735                       # Simulator op (including micro ops) rate (op/s)
host_tick_rate                               19449960                       # Simulator tick rate (ticks/s)
host_mem_usage                                6270436                       # Number of bytes of host memory used
host_seconds                                  6155.14                       # Real time elapsed on the host
sim_insts                                    54695882                       # Number of instructions simulated
sim_ops                                      96848691                       # Number of ops (including micro ops) simulated
system.voltage_domain.voltage                       1                       # Voltage in Volts
system.clk_domain.clock                           500                       # Clock period in ticks
system.mem_ctrls0.bytes_read::ruby.dir_cntrl0     42528384                       # Number of bytes read from this memory
system.mem_ctrls0.bytes_read::total          42528384                       # Number of bytes read from this memory
system.mem_ctrls0.bytes_written::ruby.dir_cntrl0     20076352                       # Number of bytes written to this memory
system.mem_ctrls0.bytes_written::total       20076352                       # Number of bytes written to this memory
system.mem_ctrls0.num_reads::ruby.dir_cntrl0       664506                       # Number of read requests responded to by this memory
system.mem_ctrls0.num_reads::total             664506                       # Number of read requests responded to by this memory
system.mem_ctrls0.num_writes::ruby.dir_cntrl0       313693                       # Number of write requests responded to by this memory
system.mem_ctrls0.num_writes::total            313693                       # Number of write requests responded to by this memory
system.mem_ctrls0.bw_read::ruby.dir_cntrl0    355240362                       # Total read bandwidth from this memory (bytes/s)
system.mem_ctrls0.bw_read::total            355240362                       # Total read bandwidth from this memory (bytes/s)
system.mem_ctrls0.bw_write::ruby.dir_cntrl0    167698132                       # Write bandwidth from this memory (bytes/s)
system.mem_ctrls0.bw_write::total           167698132                       # Write bandwidth from this memory (bytes/s)
system.mem_ctrls0.bw_total::ruby.dir_cntrl0    522938495                       # Total bandwidth to/from this memory (bytes/s)
system.mem_ctrls0.bw_total::total           522938495                       # Total bandwidth to/from this memory (bytes/s)
system.mem_ctrls0.readReqs                     664506                       # Number of read requests accepted
system.mem_ctrls0.writeReqs                    313693                       # Number of write requests accepted
system.mem_ctrls0.readBursts                   664506                       # Number of DRAM read bursts, including those serviced by the write queue
system.mem_ctrls0.writeBursts                  313693                       # Number of DRAM write bursts, including those merged in the write queue
system.mem_ctrls0.bytesReadDRAM              42506944                       # Total number of bytes read from DRAM
system.mem_ctrls0.bytesReadWrQ                  21440                       # Total number of bytes read from write queue
system.mem_ctrls0.bytesWritten               20076160                       # Total number of bytes written to DRAM
system.mem_ctrls0.bytesReadSys               42528384                       # Total read bytes from the system interface side
system.mem_ctrls0.bytesWrittenSys            20076352                       # Total written bytes from the system interface side
system.mem_ctrls0.servicedByWrQ                   335                       # Number of DRAM read bursts serviced by the write queue
system.mem_ctrls0.mergedWrBursts                    0                       # Number of DRAM write bursts merged with an existing one
system.mem_ctrls0.neitherReadNorWriteReqs            0                       # Number of requests that are neither read nor write
system.mem_ctrls0.perBankRdBursts::0            41897                       # Per bank write bursts
system.mem_ctrls0.perBankRdBursts::1            41769                       # Per bank write bursts
system.mem_ctrls0.perBankRdBursts::2            40722                       # Per bank write bursts
system.mem_ctrls0.perBankRdBursts::3            41654                       # Per bank write bursts
system.mem_ctrls0.perBankRdBursts::4            40962                       # Per bank write bursts
system.mem_ctrls0.perBankRdBursts::5            41402                       # Per bank write bursts
system.mem_ctrls0.perBankRdBursts::6            42129                       # Per bank write bursts
system.mem_ctrls0.perBankRdBursts::7            42206                       # Per bank write bursts
system.mem_ctrls0.perBankRdBursts::8            41598                       # Per bank write bursts
system.mem_ctrls0.perBankRdBursts::9            41511                       # Per bank write bursts
system.mem_ctrls0.perBankRdBursts::10           40771                       # Per bank write bursts
system.mem_ctrls0.perBankRdBursts::11           41718                       # Per bank write bursts
system.mem_ctrls0.perBankRdBursts::12           40887                       # Per bank write bursts
system.mem_ctrls0.perBankRdBursts::13           41187                       # Per bank write bursts
system.mem_ctrls0.perBankRdBursts::14           41656                       # Per bank write bursts
system.mem_ctrls0.perBankRdBursts::15           42102                       # Per bank write bursts
system.mem_ctrls0.perBankWrBursts::0            19723                       # Per bank write bursts
system.mem_ctrls0.perBankWrBursts::1            19603                       # Per bank write bursts
system.mem_ctrls0.perBankWrBursts::2            19469                       # Per bank write bursts
system.mem_ctrls0.perBankWrBursts::3            19672                       # Per bank write bursts
system.mem_ctrls0.perBankWrBursts::4            19365                       # Per bank write bursts
system.mem_ctrls0.perBankWrBursts::5            19631                       # Per bank write bursts
system.mem_ctrls0.perBankWrBursts::6            19819                       # Per bank write bursts
system.mem_ctrls0.perBankWrBursts::7            19909                       # Per bank write bursts
system.mem_ctrls0.perBankWrBursts::8            19622                       # Per bank write bursts
system.mem_ctrls0.perBankWrBursts::9            19694                       # Per bank write bursts
system.mem_ctrls0.perBankWrBursts::10           19410                       # Per bank write bursts
system.mem_ctrls0.perBankWrBursts::11           19586                       # Per bank write bursts
system.mem_ctrls0.perBankWrBursts::12           19330                       # Per bank write bursts
system.mem_ctrls0.perBankWrBursts::13           19460                       # Per bank write bursts
system.mem_ctrls0.perBankWrBursts::14           19723                       # Per bank write bursts
system.mem_ctrls0.perBankWrBursts::15           19674                       # Per bank write bursts
system.mem_ctrls0.numRdRetry                    65589                       # Number of times read queue was full causing retry
system.mem_ctrls0.numWrRetry                    12030                       # Number of times write queue was full causing retry
system.mem_ctrls0.totGap                 119716712000                       # Total gap between requests
system.mem_ctrls0.readPktSize::0                    0                       # Read request sizes (log2)
system.mem_ctrls0.readPktSize::1                    0                       # Read request sizes (log2)
system.mem_ctrls0.readPktSize::2                    0                       # Read request sizes (log2)
system.mem_ctrls0.readPktSize::3                    0                       # Read request sizes (log2)
system.mem_ctrls0.readPktSize::4                    0                       # Read request sizes (log2)
system.mem_ctrls0.readPktSize::5                    0                       # Read request sizes (log2)
system.mem_ctrls0.readPktSize::6               664506                       # Read request sizes (log2)
system.mem_ctrls0.writePktSize::0                   0                       # Write request sizes (log2)
system.mem_ctrls0.writePktSize::1                   0                       # Write request sizes (log2)
system.mem_ctrls0.writePktSize::2                   0                       # Write request sizes (log2)
system.mem_ctrls0.writePktSize::3                   0                       # Write request sizes (log2)
system.mem_ctrls0.writePktSize::4                   0                       # Write request sizes (log2)
system.mem_ctrls0.writePktSize::5                   0                       # Write request sizes (log2)
system.mem_ctrls0.writePktSize::6              313693                       # Write request sizes (log2)
system.mem_ctrls0.rdQLenPdf::0                 178548                       # What read queue length does an incoming req see
system.mem_ctrls0.rdQLenPdf::1                  23820                       # What read queue length does an incoming req see
system.mem_ctrls0.rdQLenPdf::2                  22387                       # What read queue length does an incoming req see
system.mem_ctrls0.rdQLenPdf::3                  23104                       # What read queue length does an incoming req see
system.mem_ctrls0.rdQLenPdf::4                  23037                       # What read queue length does an incoming req see
system.mem_ctrls0.rdQLenPdf::5                  22952                       # What read queue length does an incoming req see
system.mem_ctrls0.rdQLenPdf::6                  22626                       # What read queue length does an incoming req see
system.mem_ctrls0.rdQLenPdf::7                  22169                       # What read queue length does an incoming req see
system.mem_ctrls0.rdQLenPdf::8                  20935                       # What read queue length does an incoming req see
system.mem_ctrls0.rdQLenPdf::9                  19748                       # What read queue length does an incoming req see
system.mem_ctrls0.rdQLenPdf::10                 18867                       # What read queue length does an incoming req see
system.mem_ctrls0.rdQLenPdf::11                 17635                       # What read queue length does an incoming req see
system.mem_ctrls0.rdQLenPdf::12                 16581                       # What read queue length does an incoming req see
system.mem_ctrls0.rdQLenPdf::13                 15131                       # What read queue length does an incoming req see
system.mem_ctrls0.rdQLenPdf::14                 13798                       # What read queue length does an incoming req see
system.mem_ctrls0.rdQLenPdf::15                 12931                       # What read queue length does an incoming req see
system.mem_ctrls0.rdQLenPdf::16                 11992                       # What read queue length does an incoming req see
system.mem_ctrls0.rdQLenPdf::17                 10955                       # What read queue length does an incoming req see
system.mem_ctrls0.rdQLenPdf::18                 10301                       # What read queue length does an incoming req see
system.mem_ctrls0.rdQLenPdf::19                  9663                       # What read queue length does an incoming req see
system.mem_ctrls0.rdQLenPdf::20                  9021                       # What read queue length does an incoming req see
system.mem_ctrls0.rdQLenPdf::21                  8449                       # What read queue length does an incoming req see
system.mem_ctrls0.rdQLenPdf::22                  7888                       # What read queue length does an incoming req see
system.mem_ctrls0.rdQLenPdf::23                  7405                       # What read queue length does an incoming req see
system.mem_ctrls0.rdQLenPdf::24                  7044                       # What read queue length does an incoming req see
system.mem_ctrls0.rdQLenPdf::25                  6734                       # What read queue length does an incoming req see
system.mem_ctrls0.rdQLenPdf::26                  6307                       # What read queue length does an incoming req see
system.mem_ctrls0.rdQLenPdf::27                  6018                       # What read queue length does an incoming req see
system.mem_ctrls0.rdQLenPdf::28                  5724                       # What read queue length does an incoming req see
system.mem_ctrls0.rdQLenPdf::29                  5635                       # What read queue length does an incoming req see
system.mem_ctrls0.rdQLenPdf::30                  5420                       # What read queue length does an incoming req see
system.mem_ctrls0.rdQLenPdf::31                 71346                       # What read queue length does an incoming req see
system.mem_ctrls0.wrQLenPdf::0                  45027                       # What write queue length does an incoming req see
system.mem_ctrls0.wrQLenPdf::1                  50430                       # What write queue length does an incoming req see
system.mem_ctrls0.wrQLenPdf::2                  53346                       # What write queue length does an incoming req see
system.mem_ctrls0.wrQLenPdf::3                  54262                       # What write queue length does an incoming req see
system.mem_ctrls0.wrQLenPdf::4                  54562                       # What write queue length does an incoming req see
system.mem_ctrls0.wrQLenPdf::5                  17346                       # What write queue length does an incoming req see
system.mem_ctrls0.wrQLenPdf::6                  16346                       # What write queue length does an incoming req see
system.mem_ctrls0.wrQLenPdf::7                  22374                       # What write queue length does an incoming req see
system.mem_ctrls0.bytesPerActivate::samples       316567                       # Bytes accessed per row activation
system.mem_ctrls0.bytesPerActivate::mean   197.690650                       # Bytes accessed per row activation
system.mem_ctrls0.bytesPerActivate::gmean   151.489221                       # Bytes accessed per row activation
system.mem_ctrls0.bytesPerActivate::stdev   149.577089                       # Bytes accessed per row activation
system.mem_ctrls0.bytesPerActivate::0-127       105916     33.46%     33.46% # Bytes accessed per row activation
system.mem_ctrls0.bytesPerActivate::128-255        98109     30.99%     64.45% # Bytes accessed per row activation
system.mem_ctrls0.bytesPerActivate::256-383        73773     23.30%     87.75% # Bytes accessed per row activation
system.mem_ctrls0.bytesPerActivate::384-511        19282      6.09%     93.84% # Bytes accessed per row activation
system.mem_ctrls0.bytesPerActivate::512-639        14378      4.54%     98.39% # Bytes accessed per row activation
system.mem_ctrls0.bytesPerActivate::640-767         2695      0.85%     99.24% # Bytes accessed per row activation
system.mem_ctrls0.bytesPerActivate::768-895         1225      0.39%     99.62% # Bytes accessed per row activation
system.mem_ctrls0.bytesPerActivate::896-1023          785      0.25%     99.87% # Bytes accessed per row activation
system.mem_ctrls0.bytesPerActivate::1024-1151          404      0.13%    100.00% # Bytes accessed per row activation
system.mem_ctrls0.bytesPerActivate::total       316567                       # Bytes accessed per row activation
system.mem_ctrls0.rdPerTurnAround::samples        46959                       # Reads before turning the bus around for writes
system.mem_ctrls0.rdPerTurnAround::mean     14.143529                       # Reads before turning the bus around for writes
system.mem_ctrls0.rdPerTurnAround::stdev    29.212839                       # Reads before turning the bus around for writes
system.mem_ctrls0.rdPerTurnAround::0-127        46699     99.45%     99.45% # Reads before turning the bus around for writes
system.mem_ctrls0.rdPerTurnAround::128-255          215      0.46%     99.90% # Reads before turning the bus around for writes
system.mem_ctrls0.rdPerTurnAround::256-383           35      0.07%     99.98% # Reads before turning the bus around for writes
system.mem_ctrls0.rdPerTurnAround::384-511            6      0.01%     99.99% # Reads before turning the bus around for writes
system.mem_ctrls0.rdPerTurnAround::768-895            1      0.00%     99.99% # Reads before turning the bus around for writes
system.mem_ctrls0.rdPerTurnAround::896-1023            1      0.00%    100.00% # Reads before turning the bus around for writes
system.mem_ctrls0.rdPerTurnAround::1024-1151            1      0.00%    100.00% # Reads before turning the bus around for writes
system.mem_ctrls0.rdPerTurnAround::3968-4095            1      0.00%    100.00% # Reads before turning the bus around for writes
system.mem_ctrls0.rdPerTurnAround::total        46959                       # Reads before turning the bus around for writes
system.mem_ctrls0.wrPerTurnAround::samples        46959                       # Writes before turning the bus around for reads
system.mem_ctrls0.wrPerTurnAround::mean      6.680083                       # Writes before turning the bus around for reads
system.mem_ctrls0.wrPerTurnAround::gmean     6.170776                       # Writes before turning the bus around for reads
system.mem_ctrls0.wrPerTurnAround::stdev     3.164966                       # Writes before turning the bus around for reads
system.mem_ctrls0.wrPerTurnAround::4-7          36229     77.15%     77.15% # Writes before turning the bus around for reads
system.mem_ctrls0.wrPerTurnAround::8-11          5553     11.83%     88.98% # Writes before turning the bus around for reads
system.mem_ctrls0.wrPerTurnAround::12-15         2768      5.89%     94.87% # Writes before turning the bus around for reads
system.mem_ctrls0.wrPerTurnAround::16-19         2409      5.13%    100.00% # Writes before turning the bus around for reads
system.mem_ctrls0.wrPerTurnAround::total        46959                       # Writes before turning the bus around for reads
system.mem_ctrls0.totQLat                 75531468888                       # Total ticks spent queuing
system.mem_ctrls0.totMemAccLat            87984675138                       # Total ticks spent from burst creation until serviced by the DRAM
system.mem_ctrls0.totBusLat                3320855000                       # Total ticks spent in databus transfers
system.mem_ctrls0.avgQLat                   113722.93                       # Average queueing delay per DRAM burst
system.mem_ctrls0.avgBusLat                   5000.00                       # Average bus latency per DRAM burst
system.mem_ctrls0.avgMemAccLat              132472.93                       # Average memory access latency per DRAM burst
system.mem_ctrls0.avgRdBW                      355.06                       # Average DRAM read bandwidth in MiByte/s
system.mem_ctrls0.avgWrBW                      167.70                       # Average achieved write bandwidth in MiByte/s
system.mem_ctrls0.avgRdBWSys                   355.24                       # Average system read bandwidth in MiByte/s
system.mem_ctrls0.avgWrBWSys                   167.70                       # Average system write bandwidth in MiByte/s
system.mem_ctrls0.peakBW                     12800.00                       # Theoretical peak bandwidth in MiByte/s
system.mem_ctrls0.busUtil                        4.08                       # Data bus utilization in percentage
system.mem_ctrls0.busUtilRead                    2.77                       # Data bus utilization in percentage for reads
system.mem_ctrls0.busUtilWrite                   1.31                       # Data bus utilization in percentage for writes
system.mem_ctrls0.avgRdQLen                      1.76                       # Average read queue length when enqueuing
system.mem_ctrls0.avgWrQLen                      3.04                       # Average write queue length when enqueuing
system.mem_ctrls0.readRowHits                  490100                       # Number of row buffer hits during reads
system.mem_ctrls0.writeRowHits                 171185                       # Number of row buffer hits during writes
system.mem_ctrls0.readRowHitRate                73.79                       # Row buffer hit rate for reads
system.mem_ctrls0.writeRowHitRate               54.57                       # Row buffer hit rate for writes
system.mem_ctrls0.avgGap                    122384.82                       # Average gap between requests
system.mem_ctrls0.pageHitRate                   67.63                       # Row buffer hit rate, read and write combined
system.mem_ctrls0.memoryStateTime::IDLE   20222300000                       # Time in different power states
system.mem_ctrls0.memoryStateTime::REF     3997500000                       # Time in different power states
system.mem_ctrls0.memoryStateTime::PRE_PDN            0                       # Time in different power states
system.mem_ctrls0.memoryStateTime::ACT    95494437000                       # Time in different power states
system.mem_ctrls0.memoryStateTime::ACT_PDN            0                       # Time in different power states
system.mem_ctrls0.actEnergy::0             1202939640                       # Energy for activate commands per rank (pJ)
system.mem_ctrls0.actEnergy::1             1190253960                       # Energy for activate commands per rank (pJ)
system.mem_ctrls0.preEnergy::0              656365875                       # Energy for precharge commands per rank (pJ)
system.mem_ctrls0.preEnergy::1              649444125                       # Energy for precharge commands per rank (pJ)
system.mem_ctrls0.readEnergy::0            2595340800                       # Energy for read commands per rank (pJ)
system.mem_ctrls0.readEnergy::1            2585068200                       # Energy for read commands per rank (pJ)
system.mem_ctrls0.writeEnergy::0           1018578240                       # Energy for write commands per rank (pJ)
system.mem_ctrls0.writeEnergy::1           1014100560                       # Energy for write commands per rank (pJ)
system.mem_ctrls0.refreshEnergy::0         7819110000                       # Energy for refresh commands per rank (pJ)
system.mem_ctrls0.refreshEnergy::1         7819110000                       # Energy for refresh commands per rank (pJ)
system.mem_ctrls0.actBackEnergy::0        49369165470                       # Energy for active background per rank (pJ)
system.mem_ctrls0.actBackEnergy::1        48894478020                       # Energy for active background per rank (pJ)
system.mem_ctrls0.preBackEnergy::0        28522032000                       # Energy for precharge background per rank (pJ)
system.mem_ctrls0.preBackEnergy::1        28938424500                       # Energy for precharge background per rank (pJ)
system.mem_ctrls0.totalEnergy::0          91183532025                       # Total energy per rank (pJ)
system.mem_ctrls0.totalEnergy::1          91090879365                       # Total energy per rank (pJ)
system.mem_ctrls0.averagePower::0          761.678975                       # Core power per rank (mW)
system.mem_ctrls0.averagePower::1          760.905024                       # Core power per rank (mW)
system.mem_ctrls1.bytes_read::ruby.dir_cntrl1     41950400                       # Number of bytes read from this memory
system.mem_ctrls1.bytes_read::total          41950400                       # Number of bytes read from this memory
system.mem_ctrls1.bytes_written::ruby.dir_cntrl1     19493824                       # Number of bytes written to this memory
system.mem_ctrls1.bytes_written::total       19493824                       # Number of bytes written to this memory
system.mem_ctrls1.num_reads::ruby.dir_cntrl1       655475                       # Number of read requests responded to by this memory
system.mem_ctrls1.num_reads::total             655475                       # Number of read requests responded to by this memory
system.mem_ctrls1.num_writes::ruby.dir_cntrl1       304591                       # Number of write requests responded to by this memory
system.mem_ctrls1.num_writes::total            304591                       # Number of write requests responded to by this memory
system.mem_ctrls1.bw_read::ruby.dir_cntrl1    350412452                       # Total read bandwidth from this memory (bytes/s)
system.mem_ctrls1.bw_read::total            350412452                       # Total read bandwidth from this memory (bytes/s)
system.mem_ctrls1.bw_write::ruby.dir_cntrl1    162832265                       # Write bandwidth from this memory (bytes/s)
system.mem_ctrls1.bw_write::total           162832265                       # Write bandwidth from this memory (bytes/s)
system.mem_ctrls1.bw_total::ruby.dir_cntrl1    513244717                       # Total bandwidth to/from this memory (bytes/s)
system.mem_ctrls1.bw_total::total           513244717                       # Total bandwidth to/from this memory (bytes/s)
system.mem_ctrls1.readReqs                     655475                       # Number of read requests accepted
system.mem_ctrls1.writeReqs                    304591                       # Number of write requests accepted
system.mem_ctrls1.readBursts                   655475                       # Number of DRAM read bursts, including those serviced by the write queue
system.mem_ctrls1.writeBursts                  304591                       # Number of DRAM write bursts, including those merged in the write queue
system.mem_ctrls1.bytesReadDRAM              41927744                       # Total number of bytes read from DRAM
system.mem_ctrls1.bytesReadWrQ                  22656                       # Total number of bytes read from write queue
system.mem_ctrls1.bytesWritten               19493696                       # Total number of bytes written to DRAM
system.mem_ctrls1.bytesReadSys               41950400                       # Total read bytes from the system interface side
system.mem_ctrls1.bytesWrittenSys            19493824                       # Total written bytes from the system interface side
system.mem_ctrls1.servicedByWrQ                   354                       # Number of DRAM read bursts serviced by the write queue
system.mem_ctrls1.mergedWrBursts                    0                       # Number of DRAM write bursts merged with an existing one
system.mem_ctrls1.neitherReadNorWriteReqs            0                       # Number of requests that are neither read nor write
system.mem_ctrls1.perBankRdBursts::0            41577                       # Per bank write bursts
system.mem_ctrls1.perBankRdBursts::1            41051                       # Per bank write bursts
system.mem_ctrls1.perBankRdBursts::2            40246                       # Per bank write bursts
system.mem_ctrls1.perBankRdBursts::3            40664                       # Per bank write bursts
system.mem_ctrls1.perBankRdBursts::4            40799                       # Per bank write bursts
system.mem_ctrls1.perBankRdBursts::5            40674                       # Per bank write bursts
system.mem_ctrls1.perBankRdBursts::6            42007                       # Per bank write bursts
system.mem_ctrls1.perBankRdBursts::7            41481                       # Per bank write bursts
system.mem_ctrls1.perBankRdBursts::8            41072                       # Per bank write bursts
system.mem_ctrls1.perBankRdBursts::9            40800                       # Per bank write bursts
system.mem_ctrls1.perBankRdBursts::10           40252                       # Per bank write bursts
system.mem_ctrls1.perBankRdBursts::11           40842                       # Per bank write bursts
system.mem_ctrls1.perBankRdBursts::12           40724                       # Per bank write bursts
system.mem_ctrls1.perBankRdBursts::13           40487                       # Per bank write bursts
system.mem_ctrls1.perBankRdBursts::14           41230                       # Per bank write bursts
system.mem_ctrls1.perBankRdBursts::15           41215                       # Per bank write bursts
system.mem_ctrls1.perBankWrBursts::0            19229                       # Per bank write bursts
system.mem_ctrls1.perBankWrBursts::1            19046                       # Per bank write bursts
system.mem_ctrls1.perBankWrBursts::2            18948                       # Per bank write bursts
system.mem_ctrls1.perBankWrBursts::3            19022                       # Per bank write bursts
system.mem_ctrls1.perBankWrBursts::4            18953                       # Per bank write bursts
system.mem_ctrls1.perBankWrBursts::5            18978                       # Per bank write bursts
system.mem_ctrls1.perBankWrBursts::6            19234                       # Per bank write bursts
system.mem_ctrls1.perBankWrBursts::7            19353                       # Per bank write bursts
system.mem_ctrls1.perBankWrBursts::8            19059                       # Per bank write bursts
system.mem_ctrls1.perBankWrBursts::9            19099                       # Per bank write bursts
system.mem_ctrls1.perBankWrBursts::10           18814                       # Per bank write bursts
system.mem_ctrls1.perBankWrBursts::11           18964                       # Per bank write bursts
system.mem_ctrls1.perBankWrBursts::12           18873                       # Per bank write bursts
system.mem_ctrls1.perBankWrBursts::13           18819                       # Per bank write bursts
system.mem_ctrls1.perBankWrBursts::14           19121                       # Per bank write bursts
system.mem_ctrls1.perBankWrBursts::15           19077                       # Per bank write bursts
system.mem_ctrls1.numRdRetry                    69384                       # Number of times read queue was full causing retry
system.mem_ctrls1.numWrRetry                    11852                       # Number of times write queue was full causing retry
system.mem_ctrls1.totGap                 119716460000                       # Total gap between requests
system.mem_ctrls1.readPktSize::0                    0                       # Read request sizes (log2)
system.mem_ctrls1.readPktSize::1                    0                       # Read request sizes (log2)
system.mem_ctrls1.readPktSize::2                    0                       # Read request sizes (log2)
system.mem_ctrls1.readPktSize::3                    0                       # Read request sizes (log2)
system.mem_ctrls1.readPktSize::4                    0                       # Read request sizes (log2)
system.mem_ctrls1.readPktSize::5                    0                       # Read request sizes (log2)
system.mem_ctrls1.readPktSize::6               655475                       # Read request sizes (log2)
system.mem_ctrls1.writePktSize::0                   0                       # Write request sizes (log2)
system.mem_ctrls1.writePktSize::1                   0                       # Write request sizes (log2)
system.mem_ctrls1.writePktSize::2                   0                       # Write request sizes (log2)
system.mem_ctrls1.writePktSize::3                   0                       # Write request sizes (log2)
system.mem_ctrls1.writePktSize::4                   0                       # Write request sizes (log2)
system.mem_ctrls1.writePktSize::5                   0                       # Write request sizes (log2)
system.mem_ctrls1.writePktSize::6              304591                       # Write request sizes (log2)
system.mem_ctrls1.rdQLenPdf::0                 171209                       # What read queue length does an incoming req see
system.mem_ctrls1.rdQLenPdf::1                  22526                       # What read queue length does an incoming req see
system.mem_ctrls1.rdQLenPdf::2                  22192                       # What read queue length does an incoming req see
system.mem_ctrls1.rdQLenPdf::3                  22798                       # What read queue length does an incoming req see
system.mem_ctrls1.rdQLenPdf::4                  22876                       # What read queue length does an incoming req see
system.mem_ctrls1.rdQLenPdf::5                  23148                       # What read queue length does an incoming req see
system.mem_ctrls1.rdQLenPdf::6                  22835                       # What read queue length does an incoming req see
system.mem_ctrls1.rdQLenPdf::7                  22227                       # What read queue length does an incoming req see
system.mem_ctrls1.rdQLenPdf::8                  21085                       # What read queue length does an incoming req see
system.mem_ctrls1.rdQLenPdf::9                  20151                       # What read queue length does an incoming req see
system.mem_ctrls1.rdQLenPdf::10                 18878                       # What read queue length does an incoming req see
system.mem_ctrls1.rdQLenPdf::11                 17433                       # What read queue length does an incoming req see
system.mem_ctrls1.rdQLenPdf::12                 15952                       # What read queue length does an incoming req see
system.mem_ctrls1.rdQLenPdf::13                 14931                       # What read queue length does an incoming req see
system.mem_ctrls1.rdQLenPdf::14                 13723                       # What read queue length does an incoming req see
system.mem_ctrls1.rdQLenPdf::15                 12727                       # What read queue length does an incoming req see
system.mem_ctrls1.rdQLenPdf::16                 11863                       # What read queue length does an incoming req see
system.mem_ctrls1.rdQLenPdf::17                 11062                       # What read queue length does an incoming req see
system.mem_ctrls1.rdQLenPdf::18                 10076                       # What read queue length does an incoming req see
system.mem_ctrls1.rdQLenPdf::19                  9388                       # What read queue length does an incoming req see
system.mem_ctrls1.rdQLenPdf::20                  8553                       # What read queue length does an incoming req see
system.mem_ctrls1.rdQLenPdf::21                  8145                       # What read queue length does an incoming req see
system.mem_ctrls1.rdQLenPdf::22                  7626                       # What read queue length does an incoming req see
system.mem_ctrls1.rdQLenPdf::23                  7142                       # What read queue length does an incoming req see
system.mem_ctrls1.rdQLenPdf::24                  6836                       # What read queue length does an incoming req see
system.mem_ctrls1.rdQLenPdf::25                  6586                       # What read queue length does an incoming req see
system.mem_ctrls1.rdQLenPdf::26                  6229                       # What read queue length does an incoming req see
system.mem_ctrls1.rdQLenPdf::27                  5816                       # What read queue length does an incoming req see
system.mem_ctrls1.rdQLenPdf::28                  5528                       # What read queue length does an incoming req see
system.mem_ctrls1.rdQLenPdf::29                  5355                       # What read queue length does an incoming req see
system.mem_ctrls1.rdQLenPdf::30                  5246                       # What read queue length does an incoming req see
system.mem_ctrls1.rdQLenPdf::31                 74979                       # What read queue length does an incoming req see
system.mem_ctrls1.wrQLenPdf::0                  43360                       # What write queue length does an incoming req see
system.mem_ctrls1.wrQLenPdf::1                  48657                       # What write queue length does an incoming req see
system.mem_ctrls1.wrQLenPdf::2                  51328                       # What write queue length does an incoming req see
system.mem_ctrls1.wrQLenPdf::3                  52514                       # What write queue length does an incoming req see
system.mem_ctrls1.wrQLenPdf::4                  52719                       # What write queue length does an incoming req see
system.mem_ctrls1.wrQLenPdf::5                  17422                       # What write queue length does an incoming req see
system.mem_ctrls1.wrQLenPdf::6                  16362                       # What write queue length does an incoming req see
system.mem_ctrls1.wrQLenPdf::7                  22229                       # What write queue length does an incoming req see
system.mem_ctrls1.bytesPerActivate::samples       303225                       # Bytes accessed per row activation
system.mem_ctrls1.bytesPerActivate::mean   202.558074                       # Bytes accessed per row activation
system.mem_ctrls1.bytesPerActivate::gmean   155.009832                       # Bytes accessed per row activation
system.mem_ctrls1.bytesPerActivate::stdev   151.846171                       # Bytes accessed per row activation
system.mem_ctrls1.bytesPerActivate::0-127        99554     32.83%     32.83% # Bytes accessed per row activation
system.mem_ctrls1.bytesPerActivate::128-255        91003     30.01%     62.84% # Bytes accessed per row activation
system.mem_ctrls1.bytesPerActivate::256-383        73664     24.29%     87.14% # Bytes accessed per row activation
system.mem_ctrls1.bytesPerActivate::384-511        19272      6.36%     93.49% # Bytes accessed per row activation
system.mem_ctrls1.bytesPerActivate::512-639        14508      4.78%     98.28% # Bytes accessed per row activation
system.mem_ctrls1.bytesPerActivate::640-767         2745      0.91%     99.18% # Bytes accessed per row activation
system.mem_ctrls1.bytesPerActivate::768-895         1276      0.42%     99.60% # Bytes accessed per row activation
system.mem_ctrls1.bytesPerActivate::896-1023          801      0.26%     99.87% # Bytes accessed per row activation
system.mem_ctrls1.bytesPerActivate::1024-1151          402      0.13%    100.00% # Bytes accessed per row activation
system.mem_ctrls1.bytesPerActivate::total       303225                       # Bytes accessed per row activation
system.mem_ctrls1.rdPerTurnAround::samples        45257                       # Reads before turning the bus around for writes
system.mem_ctrls1.rdPerTurnAround::mean     14.475507                       # Reads before turning the bus around for writes
system.mem_ctrls1.rdPerTurnAround::stdev    27.735223                       # Reads before turning the bus around for writes
system.mem_ctrls1.rdPerTurnAround::0-127        44993     99.42%     99.42% # Reads before turning the bus around for writes
system.mem_ctrls1.rdPerTurnAround::128-255          212      0.47%     99.89% # Reads before turning the bus around for writes
system.mem_ctrls1.rdPerTurnAround::256-383           35      0.08%     99.96% # Reads before turning the bus around for writes
system.mem_ctrls1.rdPerTurnAround::384-511            7      0.02%     99.98% # Reads before turning the bus around for writes
system.mem_ctrls1.rdPerTurnAround::512-639            5      0.01%     99.99% # Reads before turning the bus around for writes
system.mem_ctrls1.rdPerTurnAround::640-767            1      0.00%     99.99% # Reads before turning the bus around for writes
system.mem_ctrls1.rdPerTurnAround::896-1023            1      0.00%     99.99% # Reads before turning the bus around for writes
system.mem_ctrls1.rdPerTurnAround::1024-1151            1      0.00%    100.00% # Reads before turning the bus around for writes
system.mem_ctrls1.rdPerTurnAround::1152-1279            1      0.00%    100.00% # Reads before turning the bus around for writes
system.mem_ctrls1.rdPerTurnAround::2816-2943            1      0.00%    100.00% # Reads before turning the bus around for writes
system.mem_ctrls1.rdPerTurnAround::total        45257                       # Reads before turning the bus around for writes
system.mem_ctrls1.wrPerTurnAround::samples        45257                       # Writes before turning the bus around for reads
system.mem_ctrls1.wrPerTurnAround::mean      6.730207                       # Writes before turning the bus around for reads
system.mem_ctrls1.wrPerTurnAround::gmean     6.206446                       # Writes before turning the bus around for reads
system.mem_ctrls1.wrPerTurnAround::stdev     3.208910                       # Writes before turning the bus around for reads
system.mem_ctrls1.wrPerTurnAround::4-7          34731     76.74%     76.74% # Writes before turning the bus around for reads
system.mem_ctrls1.wrPerTurnAround::8-11          5296     11.70%     88.44% # Writes before turning the bus around for reads
system.mem_ctrls1.wrPerTurnAround::12-15         2848      6.29%     94.74% # Writes before turning the bus around for reads
system.mem_ctrls1.wrPerTurnAround::16-19         2382      5.26%    100.00% # Writes before turning the bus around for reads
system.mem_ctrls1.wrPerTurnAround::total        45257                       # Writes before turning the bus around for reads
system.mem_ctrls1.totQLat                 75865295201                       # Total ticks spent queuing
system.mem_ctrls1.totMemAccLat            88148813951                       # Total ticks spent from burst creation until serviced by the DRAM
system.mem_ctrls1.totBusLat                3275605000                       # Total ticks spent in databus transfers
system.mem_ctrls1.avgQLat                   115803.49                       # Average queueing delay per DRAM burst
system.mem_ctrls1.avgBusLat                   5000.00                       # Average bus latency per DRAM burst
system.mem_ctrls1.avgMemAccLat              134553.49                       # Average memory access latency per DRAM burst
system.mem_ctrls1.avgRdBW                      350.22                       # Average DRAM read bandwidth in MiByte/s
system.mem_ctrls1.avgWrBW                      162.83                       # Average achieved write bandwidth in MiByte/s
system.mem_ctrls1.avgRdBWSys                   350.41                       # Average system read bandwidth in MiByte/s
system.mem_ctrls1.avgWrBWSys                   162.83                       # Average system write bandwidth in MiByte/s
system.mem_ctrls1.peakBW                     12800.00                       # Theoretical peak bandwidth in MiByte/s
system.mem_ctrls1.busUtil                        4.01                       # Data bus utilization in percentage
system.mem_ctrls1.busUtilRead                    2.74                       # Data bus utilization in percentage for reads
system.mem_ctrls1.busUtilWrite                   1.27                       # Data bus utilization in percentage for writes
system.mem_ctrls1.avgRdQLen                      1.77                       # Average read queue length when enqueuing
system.mem_ctrls1.avgWrQLen                      3.03                       # Average write queue length when enqueuing
system.mem_ctrls1.readRowHits                  486542                       # Number of row buffer hits during reads
system.mem_ctrls1.writeRowHits                 169936                       # Number of row buffer hits during writes
system.mem_ctrls1.readRowHitRate                74.27                       # Row buffer hit rate for reads
system.mem_ctrls1.writeRowHitRate               55.79                       # Row buffer hit rate for writes
system.mem_ctrls1.avgGap                    124696.07                       # Average gap between requests
system.mem_ctrls1.pageHitRate                   68.40                       # Row buffer hit rate, read and write combined
system.mem_ctrls1.memoryStateTime::IDLE   20715178250                       # Time in different power states
system.mem_ctrls1.memoryStateTime::REF     3997500000                       # Time in different power states
system.mem_ctrls1.memoryStateTime::PRE_PDN            0                       # Time in different power states
system.mem_ctrls1.memoryStateTime::ACT    95001189250                       # Time in different power states
system.mem_ctrls1.memoryStateTime::ACT_PDN            0                       # Time in different power states
system.mem_ctrls1.actEnergy::0             1155281400                       # Energy for activate commands per rank (pJ)
system.mem_ctrls1.actEnergy::1             1137061800                       # Energy for activate commands per rank (pJ)
system.mem_ctrls1.preEnergy::0              630361875                       # Energy for precharge commands per rank (pJ)
system.mem_ctrls1.preEnergy::1              620420625                       # Energy for precharge commands per rank (pJ)
system.mem_ctrls1.readEnergy::0            2562245400                       # Energy for read commands per rank (pJ)
system.mem_ctrls1.readEnergy::1            2547550200                       # Energy for read commands per rank (pJ)
system.mem_ctrls1.writeEnergy::0            989891280                       # Energy for write commands per rank (pJ)
system.mem_ctrls1.writeEnergy::1            983813040                       # Energy for write commands per rank (pJ)
system.mem_ctrls1.refreshEnergy::0         7819110000                       # Energy for refresh commands per rank (pJ)
system.mem_ctrls1.refreshEnergy::1         7819110000                       # Energy for refresh commands per rank (pJ)
system.mem_ctrls1.actBackEnergy::0        48156055560                       # Energy for active background per rank (pJ)
system.mem_ctrls1.actBackEnergy::1        47925545850                       # Energy for active background per rank (pJ)
system.mem_ctrls1.preBackEnergy::0        29586158250                       # Energy for precharge background per rank (pJ)
system.mem_ctrls1.preBackEnergy::1        29788359750                       # Energy for precharge background per rank (pJ)
system.mem_ctrls1.totalEnergy::0          90899103765                       # Total energy per rank (pJ)
system.mem_ctrls1.totalEnergy::1          90821861265                       # Total energy per rank (pJ)
system.mem_ctrls1.averagePower::0          759.303129                       # Core power per rank (mW)
system.mem_ctrls1.averagePower::1          758.657903                       # Core power per rank (mW)
system.mem_ctrls2.bytes_read::ruby.dir_cntrl2     41893376                       # Number of bytes read from this memory
system.mem_ctrls2.bytes_read::total          41893376                       # Number of bytes read from this memory
system.mem_ctrls2.bytes_written::ruby.dir_cntrl2     19483520                       # Number of bytes written to this memory
system.mem_ctrls2.bytes_written::total       19483520                       # Number of bytes written to this memory
system.mem_ctrls2.num_reads::ruby.dir_cntrl2       654584                       # Number of read requests responded to by this memory
system.mem_ctrls2.num_reads::total             654584                       # Number of read requests responded to by this memory
system.mem_ctrls2.num_writes::ruby.dir_cntrl2       304430                       # Number of write requests responded to by this memory
system.mem_ctrls2.num_writes::total            304430                       # Number of write requests responded to by this memory
system.mem_ctrls2.bw_read::ruby.dir_cntrl2    349936129                       # Total read bandwidth from this memory (bytes/s)
system.mem_ctrls2.bw_read::total            349936129                       # Total read bandwidth from this memory (bytes/s)
system.mem_ctrls2.bw_write::ruby.dir_cntrl2    162746196                       # Write bandwidth from this memory (bytes/s)
system.mem_ctrls2.bw_write::total           162746196                       # Write bandwidth from this memory (bytes/s)
system.mem_ctrls2.bw_total::ruby.dir_cntrl2    512682325                       # Total bandwidth to/from this memory (bytes/s)
system.mem_ctrls2.bw_total::total           512682325                       # Total bandwidth to/from this memory (bytes/s)
system.mem_ctrls2.readReqs                     654584                       # Number of read requests accepted
system.mem_ctrls2.writeReqs                    304430                       # Number of write requests accepted
system.mem_ctrls2.readBursts                   654584                       # Number of DRAM read bursts, including those serviced by the write queue
system.mem_ctrls2.writeBursts                  304430                       # Number of DRAM write bursts, including those merged in the write queue
system.mem_ctrls2.bytesReadDRAM              41875904                       # Total number of bytes read from DRAM
system.mem_ctrls2.bytesReadWrQ                  17472                       # Total number of bytes read from write queue
system.mem_ctrls2.bytesWritten               19483328                       # Total number of bytes written to DRAM
system.mem_ctrls2.bytesReadSys               41893376                       # Total read bytes from the system interface side
system.mem_ctrls2.bytesWrittenSys            19483520                       # Total written bytes from the system interface side
system.mem_ctrls2.servicedByWrQ                   273                       # Number of DRAM read bursts serviced by the write queue
system.mem_ctrls2.mergedWrBursts                    0                       # Number of DRAM write bursts merged with an existing one
system.mem_ctrls2.neitherReadNorWriteReqs            0                       # Number of requests that are neither read nor write
system.mem_ctrls2.perBankRdBursts::0            41279                       # Per bank write bursts
system.mem_ctrls2.perBankRdBursts::1            40909                       # Per bank write bursts
system.mem_ctrls2.perBankRdBursts::2            40352                       # Per bank write bursts
system.mem_ctrls2.perBankRdBursts::3            40796                       # Per bank write bursts
system.mem_ctrls2.perBankRdBursts::4            40697                       # Per bank write bursts
system.mem_ctrls2.perBankRdBursts::5            40689                       # Per bank write bursts
system.mem_ctrls2.perBankRdBursts::6            41956                       # Per bank write bursts
system.mem_ctrls2.perBankRdBursts::7            41422                       # Per bank write bursts
system.mem_ctrls2.perBankRdBursts::8            40924                       # Per bank write bursts
system.mem_ctrls2.perBankRdBursts::9            40598                       # Per bank write bursts
system.mem_ctrls2.perBankRdBursts::10           40215                       # Per bank write bursts
system.mem_ctrls2.perBankRdBursts::11           40885                       # Per bank write bursts
system.mem_ctrls2.perBankRdBursts::12           40528                       # Per bank write bursts
system.mem_ctrls2.perBankRdBursts::13           40555                       # Per bank write bursts
system.mem_ctrls2.perBankRdBursts::14           41334                       # Per bank write bursts
system.mem_ctrls2.perBankRdBursts::15           41172                       # Per bank write bursts
system.mem_ctrls2.perBankWrBursts::0            19124                       # Per bank write bursts
system.mem_ctrls2.perBankWrBursts::1            18982                       # Per bank write bursts
system.mem_ctrls2.perBankWrBursts::2            18900                       # Per bank write bursts
system.mem_ctrls2.perBankWrBursts::3            19078                       # Per bank write bursts
system.mem_ctrls2.perBankWrBursts::4            18951                       # Per bank write bursts
system.mem_ctrls2.perBankWrBursts::5            18973                       # Per bank write bursts
system.mem_ctrls2.perBankWrBursts::6            19208                       # Per bank write bursts
system.mem_ctrls2.perBankWrBursts::7            19373                       # Per bank write bursts
system.mem_ctrls2.perBankWrBursts::8            19050                       # Per bank write bursts
system.mem_ctrls2.perBankWrBursts::9            19070                       # Per bank write bursts
system.mem_ctrls2.perBankWrBursts::10           18753                       # Per bank write bursts
system.mem_ctrls2.perBankWrBursts::11           19021                       # Per bank write bursts
system.mem_ctrls2.perBankWrBursts::12           18867                       # Per bank write bursts
system.mem_ctrls2.perBankWrBursts::13           18887                       # Per bank write bursts
system.mem_ctrls2.perBankWrBursts::14           19095                       # Per bank write bursts
system.mem_ctrls2.perBankWrBursts::15           19095                       # Per bank write bursts
system.mem_ctrls2.numRdRetry                    68234                       # Number of times read queue was full causing retry
system.mem_ctrls2.numWrRetry                    11857                       # Number of times write queue was full causing retry
system.mem_ctrls2.totGap                 119716562000                       # Total gap between requests
system.mem_ctrls2.readPktSize::0                    0                       # Read request sizes (log2)
system.mem_ctrls2.readPktSize::1                    0                       # Read request sizes (log2)
system.mem_ctrls2.readPktSize::2                    0                       # Read request sizes (log2)
system.mem_ctrls2.readPktSize::3                    0                       # Read request sizes (log2)
system.mem_ctrls2.readPktSize::4                    0                       # Read request sizes (log2)
system.mem_ctrls2.readPktSize::5                    0                       # Read request sizes (log2)
system.mem_ctrls2.readPktSize::6               654584                       # Read request sizes (log2)
system.mem_ctrls2.writePktSize::0                   0                       # Write request sizes (log2)
system.mem_ctrls2.writePktSize::1                   0                       # Write request sizes (log2)
system.mem_ctrls2.writePktSize::2                   0                       # Write request sizes (log2)
system.mem_ctrls2.writePktSize::3                   0                       # Write request sizes (log2)
system.mem_ctrls2.writePktSize::4                   0                       # Write request sizes (log2)
system.mem_ctrls2.writePktSize::5                   0                       # Write request sizes (log2)
system.mem_ctrls2.writePktSize::6              304430                       # Write request sizes (log2)
system.mem_ctrls2.rdQLenPdf::0                 171678                       # What read queue length does an incoming req see
system.mem_ctrls2.rdQLenPdf::1                  22489                       # What read queue length does an incoming req see
system.mem_ctrls2.rdQLenPdf::2                  22605                       # What read queue length does an incoming req see
system.mem_ctrls2.rdQLenPdf::3                  22916                       # What read queue length does an incoming req see
system.mem_ctrls2.rdQLenPdf::4                  23130                       # What read queue length does an incoming req see
system.mem_ctrls2.rdQLenPdf::5                  23111                       # What read queue length does an incoming req see
system.mem_ctrls2.rdQLenPdf::6                  22855                       # What read queue length does an incoming req see
system.mem_ctrls2.rdQLenPdf::7                  22119                       # What read queue length does an incoming req see
system.mem_ctrls2.rdQLenPdf::8                  21182                       # What read queue length does an incoming req see
system.mem_ctrls2.rdQLenPdf::9                  20055                       # What read queue length does an incoming req see
system.mem_ctrls2.rdQLenPdf::10                 18823                       # What read queue length does an incoming req see
system.mem_ctrls2.rdQLenPdf::11                 17579                       # What read queue length does an incoming req see
system.mem_ctrls2.rdQLenPdf::12                 16161                       # What read queue length does an incoming req see
system.mem_ctrls2.rdQLenPdf::13                 15009                       # What read queue length does an incoming req see
system.mem_ctrls2.rdQLenPdf::14                 13894                       # What read queue length does an incoming req see
system.mem_ctrls2.rdQLenPdf::15                 12808                       # What read queue length does an incoming req see
system.mem_ctrls2.rdQLenPdf::16                 11830                       # What read queue length does an incoming req see
system.mem_ctrls2.rdQLenPdf::17                 10793                       # What read queue length does an incoming req see
system.mem_ctrls2.rdQLenPdf::18                 10088                       # What read queue length does an incoming req see
system.mem_ctrls2.rdQLenPdf::19                  9376                       # What read queue length does an incoming req see
system.mem_ctrls2.rdQLenPdf::20                  8868                       # What read queue length does an incoming req see
system.mem_ctrls2.rdQLenPdf::21                  8125                       # What read queue length does an incoming req see
system.mem_ctrls2.rdQLenPdf::22                  7499                       # What read queue length does an incoming req see
system.mem_ctrls2.rdQLenPdf::23                  7051                       # What read queue length does an incoming req see
system.mem_ctrls2.rdQLenPdf::24                  6655                       # What read queue length does an incoming req see
system.mem_ctrls2.rdQLenPdf::25                  6352                       # What read queue length does an incoming req see
system.mem_ctrls2.rdQLenPdf::26                  5942                       # What read queue length does an incoming req see
system.mem_ctrls2.rdQLenPdf::27                  5656                       # What read queue length does an incoming req see
system.mem_ctrls2.rdQLenPdf::28                  5483                       # What read queue length does an incoming req see
system.mem_ctrls2.rdQLenPdf::29                  5324                       # What read queue length does an incoming req see
system.mem_ctrls2.rdQLenPdf::30                  5195                       # What read queue length does an incoming req see
system.mem_ctrls2.rdQLenPdf::31                 73660                       # What read queue length does an incoming req see
system.mem_ctrls2.wrQLenPdf::0                  43282                       # What write queue length does an incoming req see
system.mem_ctrls2.wrQLenPdf::1                  48521                       # What write queue length does an incoming req see
system.mem_ctrls2.wrQLenPdf::2                  51244                       # What write queue length does an incoming req see
system.mem_ctrls2.wrQLenPdf::3                  52468                       # What write queue length does an incoming req see
system.mem_ctrls2.wrQLenPdf::4                  52747                       # What write queue length does an incoming req see
system.mem_ctrls2.wrQLenPdf::5                  17620                       # What write queue length does an incoming req see
system.mem_ctrls2.wrQLenPdf::6                  16507                       # What write queue length does an incoming req see
system.mem_ctrls2.wrQLenPdf::7                  22041                       # What write queue length does an incoming req see
system.mem_ctrls2.bytesPerActivate::samples       302103                       # Bytes accessed per row activation
system.mem_ctrls2.bytesPerActivate::mean   203.105299                       # Bytes accessed per row activation
system.mem_ctrls2.bytesPerActivate::gmean   155.557154                       # Bytes accessed per row activation
system.mem_ctrls2.bytesPerActivate::stdev   151.745961                       # Bytes accessed per row activation
system.mem_ctrls2.bytesPerActivate::0-127        98553     32.62%     32.62% # Bytes accessed per row activation
system.mem_ctrls2.bytesPerActivate::128-255        90575     29.98%     62.60% # Bytes accessed per row activation
system.mem_ctrls2.bytesPerActivate::256-383        73815     24.43%     87.04% # Bytes accessed per row activation
system.mem_ctrls2.bytesPerActivate::384-511        19470      6.44%     93.48% # Bytes accessed per row activation
system.mem_ctrls2.bytesPerActivate::512-639        14499      4.80%     98.28% # Bytes accessed per row activation
system.mem_ctrls2.bytesPerActivate::640-767         2771      0.92%     99.20% # Bytes accessed per row activation
system.mem_ctrls2.bytesPerActivate::768-895         1220      0.40%     99.60% # Bytes accessed per row activation
system.mem_ctrls2.bytesPerActivate::896-1023          804      0.27%     99.87% # Bytes accessed per row activation
system.mem_ctrls2.bytesPerActivate::1024-1151          396      0.13%    100.00% # Bytes accessed per row activation
system.mem_ctrls2.bytesPerActivate::total       302103                       # Bytes accessed per row activation
system.mem_ctrls2.rdPerTurnAround::samples        45212                       # Reads before turning the bus around for writes
system.mem_ctrls2.rdPerTurnAround::mean     14.471910                       # Reads before turning the bus around for writes
system.mem_ctrls2.rdPerTurnAround::stdev    27.670421                       # Reads before turning the bus around for writes
system.mem_ctrls2.rdPerTurnAround::0-127        44957     99.44%     99.44% # Reads before turning the bus around for writes
system.mem_ctrls2.rdPerTurnAround::128-255          204      0.45%     99.89% # Reads before turning the bus around for writes
system.mem_ctrls2.rdPerTurnAround::256-383           37      0.08%     99.97% # Reads before turning the bus around for writes
system.mem_ctrls2.rdPerTurnAround::384-511            5      0.01%     99.98% # Reads before turning the bus around for writes
system.mem_ctrls2.rdPerTurnAround::512-639            3      0.01%     99.99% # Reads before turning the bus around for writes
system.mem_ctrls2.rdPerTurnAround::640-767            2      0.00%     99.99% # Reads before turning the bus around for writes
system.mem_ctrls2.rdPerTurnAround::896-1023            2      0.00%    100.00% # Reads before turning the bus around for writes
system.mem_ctrls2.rdPerTurnAround::1152-1279            1      0.00%    100.00% # Reads before turning the bus around for writes
system.mem_ctrls2.rdPerTurnAround::2816-2943            1      0.00%    100.00% # Reads before turning the bus around for writes
system.mem_ctrls2.rdPerTurnAround::total        45212                       # Reads before turning the bus around for writes
system.mem_ctrls2.wrPerTurnAround::samples        45212                       # Writes before turning the bus around for reads
system.mem_ctrls2.wrPerTurnAround::mean      6.733323                       # Writes before turning the bus around for reads
system.mem_ctrls2.wrPerTurnAround::gmean     6.208153                       # Writes before turning the bus around for reads
system.mem_ctrls2.wrPerTurnAround::stdev     3.213034                       # Writes before turning the bus around for reads
system.mem_ctrls2.wrPerTurnAround::4-7          34566     76.45%     76.45% # Writes before turning the bus around for reads
system.mem_ctrls2.wrPerTurnAround::8-11          5391     11.92%     88.38% # Writes before turning the bus around for reads
system.mem_ctrls2.wrPerTurnAround::12-15         2840      6.28%     94.66% # Writes before turning the bus around for reads
system.mem_ctrls2.wrPerTurnAround::16-19         2415      5.34%    100.00% # Writes before turning the bus around for reads
system.mem_ctrls2.wrPerTurnAround::total        45212                       # Writes before turning the bus around for reads
system.mem_ctrls2.totQLat                 74946052789                       # Total ticks spent queuing
system.mem_ctrls2.totMemAccLat            87214384039                       # Total ticks spent from burst creation until serviced by the DRAM
system.mem_ctrls2.totBusLat                3271555000                       # Total ticks spent in databus transfers
system.mem_ctrls2.avgQLat                   114541.94                       # Average queueing delay per DRAM burst
system.mem_ctrls2.avgBusLat                   5000.00                       # Average bus latency per DRAM burst
system.mem_ctrls2.avgMemAccLat              133291.94                       # Average memory access latency per DRAM burst
system.mem_ctrls2.avgRdBW                      349.79                       # Average DRAM read bandwidth in MiByte/s
system.mem_ctrls2.avgWrBW                      162.74                       # Average achieved write bandwidth in MiByte/s
system.mem_ctrls2.avgRdBWSys                   349.94                       # Average system read bandwidth in MiByte/s
system.mem_ctrls2.avgWrBWSys                   162.75                       # Average system write bandwidth in MiByte/s
system.mem_ctrls2.peakBW                     12800.00                       # Theoretical peak bandwidth in MiByte/s
system.mem_ctrls2.busUtil                        4.00                       # Data bus utilization in percentage
system.mem_ctrls2.busUtilRead                    2.73                       # Data bus utilization in percentage for reads
system.mem_ctrls2.busUtilWrite                   1.27                       # Data bus utilization in percentage for writes
system.mem_ctrls2.avgRdQLen                      1.76                       # Average read queue length when enqueuing
system.mem_ctrls2.avgWrQLen                      3.03                       # Average write queue length when enqueuing
system.mem_ctrls2.readRowHits                  486407                       # Number of row buffer hits during reads
system.mem_ctrls2.writeRowHits                 170222                       # Number of row buffer hits during writes
system.mem_ctrls2.readRowHitRate                74.34                       # Row buffer hit rate for reads
system.mem_ctrls2.writeRowHitRate               55.91                       # Row buffer hit rate for writes
system.mem_ctrls2.avgGap                    124832.97                       # Average gap between requests
system.mem_ctrls2.pageHitRate                   68.49                       # Row buffer hit rate, read and write combined
system.mem_ctrls2.memoryStateTime::IDLE   20835561500                       # Time in different power states
system.mem_ctrls2.memoryStateTime::REF     3997500000                       # Time in different power states
system.mem_ctrls2.memoryStateTime::PRE_PDN            0                       # Time in different power states
system.mem_ctrls2.memoryStateTime::ACT    94881040500                       # Time in different power states
system.mem_ctrls2.memoryStateTime::ACT_PDN            0                       # Time in different power states
system.mem_ctrls2.actEnergy::0             1149324120                       # Energy for activate commands per rank (pJ)
system.mem_ctrls2.actEnergy::1             1134529200                       # Energy for activate commands per rank (pJ)
system.mem_ctrls2.preEnergy::0              627111375                       # Energy for precharge commands per rank (pJ)
system.mem_ctrls2.preEnergy::1              619038750                       # Energy for precharge commands per rank (pJ)
system.mem_ctrls2.readEnergy::0            2559148800                       # Energy for read commands per rank (pJ)
system.mem_ctrls2.readEnergy::1            2544391200                       # Energy for read commands per rank (pJ)
system.mem_ctrls2.writeEnergy::0            988763760                       # Energy for write commands per rank (pJ)
system.mem_ctrls2.writeEnergy::1            983890800                       # Energy for write commands per rank (pJ)
system.mem_ctrls2.refreshEnergy::0         7819110000                       # Energy for refresh commands per rank (pJ)
system.mem_ctrls2.refreshEnergy::1         7819110000                       # Energy for refresh commands per rank (pJ)
system.mem_ctrls2.actBackEnergy::0        48402328905                       # Energy for active background per rank (pJ)
system.mem_ctrls2.actBackEnergy::1        47888075475                       # Energy for active background per rank (pJ)
system.mem_ctrls2.preBackEnergy::0        29370129000                       # Energy for precharge background per rank (pJ)
system.mem_ctrls2.preBackEnergy::1        29821228500                       # Energy for precharge background per rank (pJ)
system.mem_ctrls2.totalEnergy::0          90915915960                       # Total energy per rank (pJ)
system.mem_ctrls2.totalEnergy::1          90810263925                       # Total energy per rank (pJ)
system.mem_ctrls2.averagePower::0          759.443566                       # Core power per rank (mW)
system.mem_ctrls2.averagePower::1          758.561028                       # Core power per rank (mW)
system.mem_ctrls3.bytes_read::ruby.dir_cntrl3     41906432                       # Number of bytes read from this memory
system.mem_ctrls3.bytes_read::total          41906432                       # Number of bytes read from this memory
system.mem_ctrls3.bytes_written::ruby.dir_cntrl3     19511552                       # Number of bytes written to this memory
system.mem_ctrls3.bytes_written::total       19511552                       # Number of bytes written to this memory
system.mem_ctrls3.num_reads::ruby.dir_cntrl3       654788                       # Number of read requests responded to by this memory
system.mem_ctrls3.num_reads::total             654788                       # Number of read requests responded to by this memory
system.mem_ctrls3.num_writes::ruby.dir_cntrl3       304868                       # Number of write requests responded to by this memory
system.mem_ctrls3.num_writes::total            304868                       # Number of write requests responded to by this memory
system.mem_ctrls3.bw_read::ruby.dir_cntrl3    350045186                       # Total read bandwidth from this memory (bytes/s)
system.mem_ctrls3.bw_read::total            350045186                       # Total read bandwidth from this memory (bytes/s)
system.mem_ctrls3.bw_write::ruby.dir_cntrl3    162980348                       # Write bandwidth from this memory (bytes/s)
system.mem_ctrls3.bw_write::total           162980348                       # Write bandwidth from this memory (bytes/s)
system.mem_ctrls3.bw_total::ruby.dir_cntrl3    513025534                       # Total bandwidth to/from this memory (bytes/s)
system.mem_ctrls3.bw_total::total           513025534                       # Total bandwidth to/from this memory (bytes/s)
system.mem_ctrls3.readReqs                     654789                       # Number of read requests accepted
system.mem_ctrls3.writeReqs                    304868                       # Number of write requests accepted
system.mem_ctrls3.readBursts                   654789                       # Number of DRAM read bursts, including those serviced by the write queue
system.mem_ctrls3.writeBursts                  304868                       # Number of DRAM write bursts, including those merged in the write queue
system.mem_ctrls3.bytesReadDRAM              41886016                       # Total number of bytes read from DRAM
system.mem_ctrls3.bytesReadWrQ                  20480                       # Total number of bytes read from write queue
system.mem_ctrls3.bytesWritten               19511296                       # Total number of bytes written to DRAM
system.mem_ctrls3.bytesReadSys               41906496                       # Total read bytes from the system interface side
system.mem_ctrls3.bytesWrittenSys            19511552                       # Total written bytes from the system interface side
system.mem_ctrls3.servicedByWrQ                   320                       # Number of DRAM read bursts serviced by the write queue
system.mem_ctrls3.mergedWrBursts                    0                       # Number of DRAM write bursts merged with an existing one
system.mem_ctrls3.neitherReadNorWriteReqs            0                       # Number of requests that are neither read nor write
system.mem_ctrls3.perBankRdBursts::0            41265                       # Per bank write bursts
system.mem_ctrls3.perBankRdBursts::1            41122                       # Per bank write bursts
system.mem_ctrls3.perBankRdBursts::2            40255                       # Per bank write bursts
system.mem_ctrls3.perBankRdBursts::3            40722                       # Per bank write bursts
system.mem_ctrls3.perBankRdBursts::4            40476                       # Per bank write bursts
system.mem_ctrls3.perBankRdBursts::5            40698                       # Per bank write bursts
system.mem_ctrls3.perBankRdBursts::6            41811                       # Per bank write bursts
system.mem_ctrls3.perBankRdBursts::7            41582                       # Per bank write bursts
system.mem_ctrls3.perBankRdBursts::8            40891                       # Per bank write bursts
system.mem_ctrls3.perBankRdBursts::9            40813                       # Per bank write bursts
system.mem_ctrls3.perBankRdBursts::10           40363                       # Per bank write bursts
system.mem_ctrls3.perBankRdBursts::11           40766                       # Per bank write bursts
system.mem_ctrls3.perBankRdBursts::12           40458                       # Per bank write bursts
system.mem_ctrls3.perBankRdBursts::13           40503                       # Per bank write bursts
system.mem_ctrls3.perBankRdBursts::14           41295                       # Per bank write bursts
system.mem_ctrls3.perBankRdBursts::15           41449                       # Per bank write bursts
system.mem_ctrls3.perBankWrBursts::0            19204                       # Per bank write bursts
system.mem_ctrls3.perBankWrBursts::1            19049                       # Per bank write bursts
system.mem_ctrls3.perBankWrBursts::2            18961                       # Per bank write bursts
system.mem_ctrls3.perBankWrBursts::3            18961                       # Per bank write bursts
system.mem_ctrls3.perBankWrBursts::4            18965                       # Per bank write bursts
system.mem_ctrls3.perBankWrBursts::5            19056                       # Per bank write bursts
system.mem_ctrls3.perBankWrBursts::6            19179                       # Per bank write bursts
system.mem_ctrls3.perBankWrBursts::7            19375                       # Per bank write bursts
system.mem_ctrls3.perBankWrBursts::8            19108                       # Per bank write bursts
system.mem_ctrls3.perBankWrBursts::9            19160                       # Per bank write bursts
system.mem_ctrls3.perBankWrBursts::10           18882                       # Per bank write bursts
system.mem_ctrls3.perBankWrBursts::11           18917                       # Per bank write bursts
system.mem_ctrls3.perBankWrBursts::12           18900                       # Per bank write bursts
system.mem_ctrls3.perBankWrBursts::13           18928                       # Per bank write bursts
system.mem_ctrls3.perBankWrBursts::14           19115                       # Per bank write bursts
system.mem_ctrls3.perBankWrBursts::15           19104                       # Per bank write bursts
system.mem_ctrls3.numRdRetry                    65229                       # Number of times read queue was full causing retry
system.mem_ctrls3.numWrRetry                    11856                       # Number of times write queue was full causing retry
system.mem_ctrls3.totGap                 119716460000                       # Total gap between requests
system.mem_ctrls3.readPktSize::0                    0                       # Read request sizes (log2)
system.mem_ctrls3.readPktSize::1                    0                       # Read request sizes (log2)
system.mem_ctrls3.readPktSize::2                    0                       # Read request sizes (log2)
system.mem_ctrls3.readPktSize::3                    0                       # Read request sizes (log2)
system.mem_ctrls3.readPktSize::4                    0                       # Read request sizes (log2)
system.mem_ctrls3.readPktSize::5                    0                       # Read request sizes (log2)
system.mem_ctrls3.readPktSize::6               654789                       # Read request sizes (log2)
system.mem_ctrls3.writePktSize::0                   0                       # Write request sizes (log2)
system.mem_ctrls3.writePktSize::1                   0                       # Write request sizes (log2)
system.mem_ctrls3.writePktSize::2                   0                       # Write request sizes (log2)
system.mem_ctrls3.writePktSize::3                   0                       # Write request sizes (log2)
system.mem_ctrls3.writePktSize::4                   0                       # Write request sizes (log2)
system.mem_ctrls3.writePktSize::5                   0                       # Write request sizes (log2)
system.mem_ctrls3.writePktSize::6              304868                       # Write request sizes (log2)
system.mem_ctrls3.rdQLenPdf::0                 171130                       # What read queue length does an incoming req see
system.mem_ctrls3.rdQLenPdf::1                  22373                       # What read queue length does an incoming req see
system.mem_ctrls3.rdQLenPdf::2                  22458                       # What read queue length does an incoming req see
system.mem_ctrls3.rdQLenPdf::3                  22998                       # What read queue length does an incoming req see
system.mem_ctrls3.rdQLenPdf::4                  23237                       # What read queue length does an incoming req see
system.mem_ctrls3.rdQLenPdf::5                  23356                       # What read queue length does an incoming req see
system.mem_ctrls3.rdQLenPdf::6                  22852                       # What read queue length does an incoming req see
system.mem_ctrls3.rdQLenPdf::7                  22092                       # What read queue length does an incoming req see
system.mem_ctrls3.rdQLenPdf::8                  21131                       # What read queue length does an incoming req see
[...]
system.ruby.L2Cache_Controller.MT_MB.L2_Replacement_clean::total            1                      
system.ruby.L2Cache_Controller.MT_MB.Exclusive_Unblock |      218772      5.22%      5.22% |      128540      3.07%      8.28% |      127492      3.04%     11.33% |      129703      3.09%     14.42% |      127717      3.05%     17.47% |      127028      3.03%     20.49% |      127059      3.03%     23.53% |      126513      3.02%     26.54% |      126725      3.02%     29.57% |      127184      3.03%     32.60% |      128991      3.08%     35.68% |      127765      3.05%     38.72% |      126443      3.02%     41.74% |      127036      3.03%     44.77% |      125517      2.99%     47.76% |      125487      2.99%     50.76% |      126266      3.01%     53.77% |      126189      3.01%     56.78% |      126461      3.02%     59.79% |      126554      3.02%     62.81% |      126784      3.02%     65.84% |      141489      3.37%     69.21% |      135059      3.22%     72.43% |      125783      3.00%     75.43% |      126226      3.01%     78.44% |      126584      3.02%     81.46% |      126561      3.02%     84.48% |      126467      3.02%     87.50% |      128017      3.05%     90.55% |      127213      3.03%     93.59% |      130815      3.12%     96.71% |      138080      3.29%    100.00%
system.ruby.L2Cache_Controller.MT_MB.Exclusive_Unblock::total      4192520                      
system.ruby.L2Cache_Controller.MT_IIB.L1_GETS |           1     10.00%     10.00% |           0      0.00%     10.00% |           0      0.00%     10.00% |           0      0.00%     10.00% |           1     10.00%     20.00% |           0      0.00%     20.00% |           1     10.00%     30.00% |           0      0.00%     30.00% |           2     20.00%     50.00% |           0      0.00%     50.00% |           0      0.00%     50.00% |           0      0.00%     50.00% |           1     10.00%     60.00% |           0      0.00%     60.00% |           0      0.00%     60.00% |           0      0.00%     60.00% |           2     20.00%     80.00% |           0      0.00%     80.00% |           0      0.00%     80.00% |           0      0.00%     80.00% |           0      0.00%     80.00% |           0      0.00%     80.00% |           1     10.00%     90.00% |           0      0.00%     90.00% |           1     10.00%    100.00% |           0      0.00%    100.00% |           0      0.00%    100.00% |           0      0.00%    100.00% |           0      0.00%    100.00% |           0      0.00%    100.00% |           0      0.00%    100.00% |           0      0.00%    100.00%
system.ruby.L2Cache_Controller.MT_IIB.L1_GETS::total           10                      
system.ruby.L2Cache_Controller.MT_IIB.L1_PUTX |          18      1.89%      1.89% |          20      2.10%      3.98% |          17      1.78%      5.77% |          23      2.41%      8.18% |          17      1.78%      9.96% |          23      2.41%     12.37% |          19      1.99%     14.36% |          22      2.31%     16.67% |          20      2.10%     18.76% |          22      2.31%     21.07% |          32      3.35%     24.42% |          37      3.88%     28.30% |          39      4.09%     32.39% |          49      5.14%     37.53% |          41      4.30%     41.82% |          26      2.73%     44.55% |          35      3.67%     48.22% |          27      2.83%     51.05% |          38      3.98%     55.03% |          51      5.35%     60.38% |          45      4.72%     65.09% |          41      4.30%     69.39% |          44      4.61%     74.00% |          34      3.56%     77.57% |          44      4.61%     82.18% |          27      2.83%     85.01% |          34      3.56%     88.57% |          34      3.56%     92.14% |          21      2.20%     94.34% |          16      1.68%     96.02% |          20      2.10%     98.11% |          18      1.89%    100.00%
system.ruby.L2Cache_Controller.MT_IIB.L1_PUTX::total          954                      
system.ruby.L2Cache_Controller.MT_IIB.WB_Data |           0      0.00%      0.00% |           0      0.00%      0.00% |           0      0.00%      0.00% |           0      0.00%      0.00% |           0      0.00%      0.00% |           0      0.00%      0.00% |           0      0.00%      0.00% |           0      0.00%      0.00% |           0      0.00%      0.00% |           0      0.00%      0.00% |           0      0.00%      0.00% |           0      0.00%      0.00% |           0      0.00%      0.00% |           0      0.00%      0.00% |           0      0.00%      0.00% |           0      0.00%      0.00% |           0      0.00%      0.00% |           0      0.00%      0.00% |           0      0.00%      0.00% |           0      0.00%      0.00% |           0      0.00%      0.00% |           2     40.00%     40.00% |           0      0.00%     40.00% |           0      0.00%     40.00% |           0      0.00%     40.00% |           0      0.00%     40.00% |           1     20.00%     60.00% |           0      0.00%     60.00% |           0      0.00%     60.00% |           0      0.00%     60.00% |           0      0.00%     60.00% |           2     40.00%    100.00%
system.ruby.L2Cache_Controller.MT_IIB.WB_Data::total            5                      
system.ruby.L2Cache_Controller.MT_IIB.WB_Data_clean |        1397      3.20%      3.20% |        1348      3.09%      6.29% |        1272      2.92%      9.21% |        1266      2.90%     12.11% |        1388      3.18%     15.29% |        1381      3.17%     18.46% |        1329      3.05%     21.50% |        1316      3.02%     24.52% |        1218      2.79%     27.31% |        1216      2.79%     30.10% |        1308      3.00%     33.09% |        1372      3.14%     36.24% |        1394      3.20%     39.43% |        1365      3.13%     42.56% |        1357      3.11%     45.67% |        1363      3.12%     48.80% |        1345      3.08%     51.88% |        1353      3.10%     54.98% |        1466      3.36%     58.34% |        1479      3.39%     61.73% |        1424      3.26%     65.00% |        1327      3.04%     68.04% |        1456      3.34%     71.37% |        1369      3.14%     74.51% |        1327      3.04%     77.55% |        1359      3.11%     80.67% |        1403      3.22%     83.88% |        1402      3.21%     87.10% |        1460      3.35%     90.44% |        1393      3.19%     93.64% |        1417      3.25%     96.89% |        1359      3.11%    100.00%
system.ruby.L2Cache_Controller.MT_IIB.WB_Data_clean::total        43629                      
system.ruby.L2Cache_Controller.MT_IIB.Unblock |          30      0.96%      0.96% |          36      1.15%      2.11% |         117      3.73%      5.84% |         117      3.73%      9.57% |          90      2.87%     12.44% |          62      1.98%     14.42% |          89      2.84%     17.26% |          68      2.17%     19.43% |         175      5.58%     25.02% |         151      4.82%     29.83% |         134      4.28%     34.11% |         102      3.25%     37.36% |          62      1.98%     39.34% |          76      2.43%     41.77% |         126      4.02%     45.79% |          92      2.94%     48.72% |          95      3.03%     51.75% |          81      2.58%     54.34% |          90      2.87%     57.21% |          79      2.52%     59.73% |         143      4.56%     64.29% |         138      4.40%     68.70% |         111      3.54%     72.24% |          93      2.97%     75.21% |          99      3.16%     78.37% |          86      2.74%     81.11% |          99      3.16%     84.27% |          84      2.68%     86.95% |         109      3.48%     90.43% |         117      3.73%     94.16% |         117      3.73%     97.89% |          66      2.11%    100.00%
system.ruby.L2Cache_Controller.MT_IIB.Unblock::total         3134                      
system.ruby.L2Cache_Controller.MT_IB.L1_PUTX |           0      0.00%      0.00% |           0      0.00%      0.00% |           0      0.00%      0.00% |           0      0.00%      0.00% |           0      0.00%      0.00% |           0      0.00%      0.00% |           0      0.00%      0.00% |           0      0.00%      0.00% |           0      0.00%      0.00% |           0      0.00%      0.00% |           0      0.00%      0.00% |           0      0.00%      0.00% |           0      0.00%      0.00% |           0      0.00%      0.00% |           0      0.00%      0.00% |           0      0.00%      0.00% |           0      0.00%      0.00% |           0      0.00%      0.00% |           0      0.00%      0.00% |           0      0.00%      0.00% |           0      0.00%      0.00% |           0      0.00%      0.00% |           0      0.00%      0.00% |           0      0.00%      0.00% |           0      0.00%      0.00% |           0      0.00%      0.00% |           1    100.00%    100.00% |           0      0.00%    100.00% |           0      0.00%    100.00% |           0      0.00%    100.00% |           0      0.00%    100.00% |           0      0.00%    100.00%
system.ruby.L2Cache_Controller.MT_IB.L1_PUTX::total            1                      
system.ruby.L2Cache_Controller.MT_IB.WB_Data_clean |          30      0.96%      0.96% |          36      1.15%      2.11% |         117      3.73%      5.84% |         117      3.73%      9.57% |          90      2.87%     12.44% |          62      1.98%     14.42% |          89      2.84%     17.26% |          68      2.17%     19.43% |         175      5.58%     25.02% |         151      4.82%     29.83% |         134      4.28%     34.11% |         102      3.25%     37.36% |          62      1.98%     39.34% |          76      2.43%     41.77% |         126      4.02%     45.79% |          92      2.94%     48.72% |          95      3.03%     51.75% |          81      2.58%     54.34% |          90      2.87%     57.21% |          79      2.52%     59.73% |         143      4.56%     64.29% |         138      4.40%     68.70% |         111      3.54%     72.24% |          93      2.97%     75.21% |          99      3.16%     78.37% |          86      2.74%     81.11% |          99      3.16%     84.27% |          84      2.68%     86.95% |         109      3.48%     90.43% |         117      3.73%     94.16% |         117      3.73%     97.89% |          66      2.11%    100.00%
system.ruby.L2Cache_Controller.MT_IB.WB_Data_clean::total         3134                      
system.ruby.L2Cache_Controller.MT_SB.L1_GETS |           0      0.00%      0.00% |           0      0.00%      0.00% |           0      0.00%      0.00% |           0      0.00%      0.00% |           0      0.00%      0.00% |           0      0.00%      0.00% |           0      0.00%      0.00% |           0      0.00%      0.00% |           0      0.00%      0.00% |           0      0.00%      0.00% |           1     50.00%     50.00% |           0      0.00%     50.00% |           0      0.00%     50.00% |           0      0.00%     50.00% |           0      0.00%     50.00% |           0      0.00%     50.00% |           0      0.00%     50.00% |           0      0.00%     50.00% |           0      0.00%     50.00% |           0      0.00%     50.00% |           0      0.00%     50.00% |           0      0.00%     50.00% |           1     50.00%    100.00% |           0      0.00%    100.00% |           0      0.00%    100.00% |           0      0.00%    100.00% |           0      0.00%    100.00% |           0      0.00%    100.00% |           0      0.00%    100.00% |           0      0.00%    100.00% |           0      0.00%    100.00% |           0      0.00%    100.00%
system.ruby.L2Cache_Controller.MT_SB.L1_GETS::total            2                      
system.ruby.L2Cache_Controller.MT_SB.L1_PUTX |           0      0.00%      0.00% |           1      2.56%      2.56% |           3      7.69%     10.26% |           2      5.13%     15.38% |           0      0.00%     15.38% |           0      0.00%     15.38% |           0      0.00%     15.38% |           2      5.13%     20.51% |           0      0.00%     20.51% |           1      2.56%     23.08% |           1      2.56%     25.64% |           1      2.56%     28.21% |           0      0.00%     28.21% |           0      0.00%     28.21% |           0      0.00%     28.21% |           1      2.56%     30.77% |           3      7.69%     38.46% |           3      7.69%     46.15% |           4     10.26%     56.41% |           0      0.00%     56.41% |           0      0.00%     56.41% |           0      0.00%     56.41% |           1      2.56%     58.97% |           1      2.56%     61.54% |           1      2.56%     64.10% |           4     10.26%     74.36% |           1      2.56%     76.92% |           1      2.56%     79.49% |           3      7.69%     87.18% |           1      2.56%     89.74% |           0      0.00%     89.74% |           4     10.26%    100.00%
system.ruby.L2Cache_Controller.MT_SB.L1_PUTX::total           39                      
system.ruby.L2Cache_Controller.MT_SB.Unblock |        1397      3.20%      3.20% |        1348      3.09%      6.29% |        1272      2.92%      9.21% |        1266      2.90%     12.11% |        1388      3.18%     15.29% |        1381      3.16%     18.45% |        1329      3.05%     21.50% |        1316      3.02%     24.52% |        1218      2.79%     27.31% |        1216      2.79%     30.09% |        1308      3.00%     33.09% |        1372      3.14%     36.24% |        1394      3.19%     39.43% |        1365      3.13%     42.56% |        1357      3.11%     45.67% |        1363      3.12%     48.79% |        1345      3.08%     51.87% |        1353      3.10%     54.98% |        1466      3.36%     58.34% |        1479      3.39%     61.72% |        1424      3.26%     64.99% |        1329      3.05%     68.03% |        1456      3.34%     71.37% |        1369      3.14%     74.51% |        1327      3.04%     77.55% |        1359      3.11%     80.66% |        1404      3.22%     83.88% |        1402      3.21%     87.09% |        1460      3.35%     90.44% |        1393      3.19%     93.63% |        1417      3.25%     96.88% |        1361      3.12%    100.00%
system.ruby.L2Cache_Controller.MT_SB.Unblock::total        43634                      
system.ruby.SimicsNetworkPortInterface_Controller.MessageSend |      459480     19.48%     19.48% |     1179064     50.00%     69.48% |       87626      3.72%     73.20% |       94854      4.02%     77.22% |       89726      3.80%     81.03% |       92817      3.94%     84.96% |       90212      3.83%     88.79% |       97283      4.13%     92.92% |       83003      3.52%     96.44% |       84063      3.56%    100.00% |           0      0.00%    100.00% |           0      0.00%    100.00% |           0      0.00%    100.00% |           0      0.00%    100.00% |           0      0.00%    100.00% |           0      0.00%    100.00% |           0      0.00%    100.00% |           0      0.00%    100.00% |           0      0.00%    100.00% |           0      0.00%    100.00% |           0      0.00%    100.00% |           0      0.00%    100.00% |           0      0.00%    100.00% |           0      0.00%    100.00% |           0      0.00%    100.00% |           0      0.00%    100.00% |           0      0.00%    100.00% |           0      0.00%    100.00% |           0      0.00%    100.00% |           0      0.00%    100.00% |           0      0.00%    100.00% |           0      0.00%    100.00%
system.ruby.SimicsNetworkPortInterface_Controller.MessageSend::total      2358128                      
system.ruby.SimicsNetworkPortInterface_Controller.MessageRecv |      459480     19.48%     19.48% |     1179064     50.00%     69.48% |       87626      3.72%     73.20% |       94854      4.02%     77.22% |       89726      3.80%     81.03% |       92817      3.94%     84.96% |       90212      3.83%     88.79% |       97283      4.13%     92.92% |       83003      3.52%     96.44% |       84063      3.56%    100.00% |           0      0.00%    100.00% |           0      0.00%    100.00% |           0      0.00%    100.00% |           0      0.00%    100.00% |           0      0.00%    100.00% |           0      0.00%    100.00% |           0      0.00%    100.00% |           0      0.00%    100.00% |           0      0.00%    100.00% |           0      0.00%    100.00% |           0      0.00%    100.00% |           0      0.00%    100.00% |           0      0.00%    100.00% |           0      0.00%    100.00% |           0      0.00%    100.00% |           0      0.00%    100.00% |           0      0.00%    100.00% |           0      0.00%    100.00% |           0      0.00%    100.00% |           0      0.00%    100.00% |           0      0.00%    100.00% |           0      0.00%    100.00%
system.ruby.SimicsNetworkPortInterface_Controller.MessageRecv::total      2358128                      
system.ruby.SimicsNetworkPortInterface_Controller.A.MessageSend |      459480     19.48%     19.48% |     1179064     50.00%     69.48% |       87626      3.72%     73.20% |       94854      4.02%     77.22% |       89726      3.80%     81.03% |       92817      3.94%     84.96% |       90212      3.83%     88.79% |       97283      4.13%     92.92% |       83003      3.52%     96.44% |       84063      3.56%    100.00% |           0      0.00%    100.00% |           0      0.00%    100.00% |           0      0.00%    100.00% |           0      0.00%    100.00% |           0      0.00%    100.00% |           0      0.00%    100.00% |           0      0.00%    100.00% |           0      0.00%    100.00% |           0      0.00%    100.00% |           0      0.00%    100.00% |           0      0.00%    100.00% |           0      0.00%    100.00% |           0      0.00%    100.00% |           0      0.00%    100.00% |           0      0.00%    100.00% |           0      0.00%    100.00% |           0      0.00%    100.00% |           0      0.00%    100.00% |           0      0.00%    100.00% |           0      0.00%    100.00% |           0      0.00%    100.00% |           0      0.00%    100.00%
system.ruby.SimicsNetworkPortInterface_Controller.A.MessageSend::total      2358128                      
system.ruby.SimicsNetworkPortInterface_Controller.A.MessageRecv |      459480     19.48%     19.48% |     1179064     50.00%     69.48% |       87626      3.72%     73.20% |       94854      4.02%     77.22% |       89726      3.80%     81.03% |       92817      3.94%     84.96% |       90212      3.83%     88.79% |       97283      4.13%     92.92% |       83003      3.52%     96.44% |       84063      3.56%    100.00% |           0      0.00%    100.00% |           0      0.00%    100.00% |           0      0.00%    100.00% |           0      0.00%    100.00% |           0      0.00%    100.00% |           0      0.00%    100.00% |           0      0.00%    100.00% |           0      0.00%    100.00% |           0      0.00%    100.00% |           0      0.00%    100.00% |           0      0.00%    100.00% |           0      0.00%    100.00% |           0      0.00%    100.00% |           0      0.00%    100.00% |           0      0.00%    100.00% |           0      0.00%    100.00% |           0      0.00%    100.00% |           0      0.00%    100.00% |           0      0.00%    100.00% |           0      0.00%    100.00% |           0      0.00%    100.00% |           0      0.00%    100.00%
system.ruby.SimicsNetworkPortInterface_Controller.A.MessageRecv::total      2358128                      
system.switch_cpus.kern.inst.arm                    0                       # number of arm instructions executed
system.switch_cpus.kern.inst.quiesce                0                       # number of quiesce instructions executed

---------- End Simulation Statistics   ----------
