
---------- Begin Simulation Statistics ----------
sim_seconds                                  0.038016                       # Number of seconds simulated
sim_ticks                                 38016179000                       # Number of ticks simulated
final_tick                               5214184257500                       # Number of ticks from beginning of simulation (restored from checkpoints and never reset)
sim_freq                                 1000000000000                       # Frequency of simulated ticks
host_inst_rate                                  33193                       # Simulator instruction rate (inst/s)
host_op_rate                                    59705                       # Simulator op (including micro ops) rate (op/s)
host_tick_rate                               51982768                       # Simulator tick rate (ticks/s)
host_mem_usage                                4766180                       # Number of bytes of host memory used
host_seconds                                   731.32                       # Real time elapsed on the host
sim_insts                                    24274671                       # Number of instructions simulated
sim_ops                                      43663707                       # Number of ops (including micro ops) simulated
system.voltage_domain.voltage                       1                       # Voltage in Volts
system.clk_domain.clock                           500                       # Clock period in ticks
system.mem_ctrls0.bytes_read::ruby.dir_cntrl0      4968512                       # Number of bytes read from this memory
system.mem_ctrls0.bytes_read::total           4968512                       # Number of bytes read from this memory
system.mem_ctrls0.bytes_written::ruby.dir_cntrl0      3964736                       # Number of bytes written to this memory
system.mem_ctrls0.bytes_written::total        3964736                       # Number of bytes written to this memory
system.mem_ctrls0.num_reads::ruby.dir_cntrl0        77633                       # Number of read requests responded to by this memory
system.mem_ctrls0.num_reads::total              77633                       # Number of read requests responded to by this memory
system.mem_ctrls0.num_writes::ruby.dir_cntrl0        61949                       # Number of write requests responded to by this memory
system.mem_ctrls0.num_writes::total             61949                       # Number of write requests responded to by this memory
system.mem_ctrls0.bw_read::ruby.dir_cntrl0    130694671                       # Total read bandwidth from this memory (bytes/s)
system.mem_ctrls0.bw_read::total            130694671                       # Total read bandwidth from this memory (bytes/s)
system.mem_ctrls0.bw_write::ruby.dir_cntrl0    104290755                       # Write bandwidth from this memory (bytes/s)
system.mem_ctrls0.bw_write::total           104290755                       # Write bandwidth from this memory (bytes/s)
system.mem_ctrls0.bw_total::ruby.dir_cntrl0    234985426                       # Total bandwidth to/from this memory (bytes/s)
system.mem_ctrls0.bw_total::total           234985426                       # Total bandwidth to/from this memory (bytes/s)
system.mem_ctrls0.readReqs                      77633                       # Number of read requests accepted
system.mem_ctrls0.writeReqs                     61949                       # Number of write requests accepted
system.mem_ctrls0.readBursts                    77633                       # Number of DRAM read bursts, including those serviced by the write queue
system.mem_ctrls0.writeBursts                   61949                       # Number of DRAM write bursts, including those merged in the write queue
system.mem_ctrls0.bytesReadDRAM               4967168                       # Total number of bytes read from DRAM
system.mem_ctrls0.bytesReadWrQ                   1344                       # Total number of bytes read from write queue
system.mem_ctrls0.bytesWritten                3964608                       # Total number of bytes written to DRAM
system.mem_ctrls0.bytesReadSys                4968512                       # Total read bytes from the system interface side
system.mem_ctrls0.bytesWrittenSys             3964736                       # Total written bytes from the system interface side
system.mem_ctrls0.servicedByWrQ                    21                       # Number of DRAM read bursts serviced by the write queue
system.mem_ctrls0.mergedWrBursts                    0                       # Number of DRAM write bursts merged with an existing one
system.mem_ctrls0.neitherReadNorWriteReqs            0                       # Number of requests that are neither read nor write
system.mem_ctrls0.perBankRdBursts::0             4394                       # Per bank write bursts
system.mem_ctrls0.perBankRdBursts::1             4841                       # Per bank write bursts
system.mem_ctrls0.perBankRdBursts::2             4549                       # Per bank write bursts
system.mem_ctrls0.perBankRdBursts::3             4966                       # Per bank write bursts
system.mem_ctrls0.perBankRdBursts::4             4846                       # Per bank write bursts
system.mem_ctrls0.perBankRdBursts::5             5351                       # Per bank write bursts
system.mem_ctrls0.perBankRdBursts::6             4952                       # Per bank write bursts
system.mem_ctrls0.perBankRdBursts::7             5219                       # Per bank write bursts
system.mem_ctrls0.perBankRdBursts::8             5045                       # Per bank write bursts
system.mem_ctrls0.perBankRdBursts::9             5203                       # Per bank write bursts
system.mem_ctrls0.perBankRdBursts::10            4620                       # Per bank write bursts
system.mem_ctrls0.perBankRdBursts::11            4794                       # Per bank write bursts
system.mem_ctrls0.perBankRdBursts::12            4587                       # Per bank write bursts
system.mem_ctrls0.perBankRdBursts::13            4632                       # Per bank write bursts
system.mem_ctrls0.perBankRdBursts::14            4797                       # Per bank write bursts
system.mem_ctrls0.perBankRdBursts::15            4816                       # Per bank write bursts
system.mem_ctrls0.perBankWrBursts::0             3622                       # Per bank write bursts
system.mem_ctrls0.perBankWrBursts::1             3567                       # Per bank write bursts
system.mem_ctrls0.perBankWrBursts::2             3647                       # Per bank write bursts
system.mem_ctrls0.perBankWrBursts::3             3794                       # Per bank write bursts
system.mem_ctrls0.perBankWrBursts::4             3858                       # Per bank write bursts
system.mem_ctrls0.perBankWrBursts::5             4191                       # Per bank write bursts
system.mem_ctrls0.perBankWrBursts::6             3927                       # Per bank write bursts
system.mem_ctrls0.perBankWrBursts::7             4181                       # Per bank write bursts
system.mem_ctrls0.perBankWrBursts::8             4057                       # Per bank write bursts
system.mem_ctrls0.perBankWrBursts::9             4134                       # Per bank write bursts
system.mem_ctrls0.perBankWrBursts::10            3701                       # Per bank write bursts
system.mem_ctrls0.perBankWrBursts::11            3637                       # Per bank write bursts
system.mem_ctrls0.perBankWrBursts::12            3791                       # Per bank write bursts
system.mem_ctrls0.perBankWrBursts::13            3903                       # Per bank write bursts
system.mem_ctrls0.perBankWrBursts::14            4028                       # Per bank write bursts
system.mem_ctrls0.perBankWrBursts::15            3909                       # Per bank write bursts
system.mem_ctrls0.numRdRetry                        6                       # Number of times read queue was full causing retry
system.mem_ctrls0.numWrRetry                      142                       # Number of times write queue was full causing retry
system.mem_ctrls0.totGap                  38015688500                       # Total gap between requests
system.mem_ctrls0.readPktSize::0                    0                       # Read request sizes (log2)
system.mem_ctrls0.readPktSize::1                    0                       # Read request sizes (log2)
system.mem_ctrls0.readPktSize::2                    0                       # Read request sizes (log2)
system.mem_ctrls0.readPktSize::3                    0                       # Read request sizes (log2)
system.mem_ctrls0.readPktSize::4                    0                       # Read request sizes (log2)
system.mem_ctrls0.readPktSize::5                    0                       # Read request sizes (log2)
system.mem_ctrls0.readPktSize::6                77633                       # Read request sizes (log2)
system.mem_ctrls0.writePktSize::0                   0                       # Write request sizes (log2)
system.mem_ctrls0.writePktSize::1                   0                       # Write request sizes (log2)
system.mem_ctrls0.writePktSize::2                   0                       # Write request sizes (log2)
system.mem_ctrls0.writePktSize::3                   0                       # Write request sizes (log2)
system.mem_ctrls0.writePktSize::4                   0                       # Write request sizes (log2)
system.mem_ctrls0.writePktSize::5                   0                       # Write request sizes (log2)
system.mem_ctrls0.writePktSize::6               61949                       # Write request sizes (log2)
system.mem_ctrls0.rdQLenPdf::0                  59973                       # What read queue length does an incoming req see
system.mem_ctrls0.rdQLenPdf::1                  10548                       # What read queue length does an incoming req see
system.mem_ctrls0.rdQLenPdf::2                   3478                       # What read queue length does an incoming req see
system.mem_ctrls0.rdQLenPdf::3                   1419                       # What read queue length does an incoming req see
system.mem_ctrls0.rdQLenPdf::4                    770                       # What read queue length does an incoming req see
system.mem_ctrls0.rdQLenPdf::5                    462                       # What read queue length does an incoming req see
system.mem_ctrls0.rdQLenPdf::6                    262                       # What read queue length does an incoming req see
system.mem_ctrls0.rdQLenPdf::7                    166                       # What read queue length does an incoming req see
system.mem_ctrls0.rdQLenPdf::8                    110                       # What read queue length does an incoming req see
system.mem_ctrls0.rdQLenPdf::9                     66                       # What read queue length does an incoming req see
system.mem_ctrls0.rdQLenPdf::10                    56                       # What read queue length does an incoming req see
system.mem_ctrls0.rdQLenPdf::11                    46                       # What read queue length does an incoming req see
system.mem_ctrls0.rdQLenPdf::12                    46                       # What read queue length does an incoming req see
system.mem_ctrls0.rdQLenPdf::13                    36                       # What read queue length does an incoming req see
system.mem_ctrls0.rdQLenPdf::14                    31                       # What read queue length does an incoming req see
system.mem_ctrls0.rdQLenPdf::15                    29                       # What read queue length does an incoming req see
system.mem_ctrls0.rdQLenPdf::16                    21                       # What read queue length does an incoming req see
system.mem_ctrls0.rdQLenPdf::17                    20                       # What read queue length does an incoming req see
system.mem_ctrls0.rdQLenPdf::18                    15                       # What read queue length does an incoming req see
system.mem_ctrls0.rdQLenPdf::19                    15                       # What read queue length does an incoming req see
system.mem_ctrls0.rdQLenPdf::20                     7                       # What read queue length does an incoming req see
system.mem_ctrls0.rdQLenPdf::21                     5                       # What read queue length does an incoming req see
system.mem_ctrls0.rdQLenPdf::22                     5                       # What read queue length does an incoming req see
system.mem_ctrls0.rdQLenPdf::23                     3                       # What read queue length does an incoming req see
system.mem_ctrls0.rdQLenPdf::24                     3                       # What read queue length does an incoming req see
system.mem_ctrls0.rdQLenPdf::25                     3                       # What read queue length does an incoming req see
system.mem_ctrls0.rdQLenPdf::26                     3                       # What read queue length does an incoming req see
system.mem_ctrls0.rdQLenPdf::27                     3                       # What read queue length does an incoming req see
system.mem_ctrls0.rdQLenPdf::28                     2                       # What read queue length does an incoming req see
system.mem_ctrls0.rdQLenPdf::29                     1                       # What read queue length does an incoming req see
system.mem_ctrls0.rdQLenPdf::30                     1                       # What read queue length does an incoming req see
system.mem_ctrls0.rdQLenPdf::31                     7                       # What read queue length does an incoming req see
system.mem_ctrls0.wrQLenPdf::0                  11512                       # What write queue length does an incoming req see
system.mem_ctrls0.wrQLenPdf::1                  12677                       # What write queue length does an incoming req see
system.mem_ctrls0.wrQLenPdf::2                  12632                       # What write queue length does an incoming req see
system.mem_ctrls0.wrQLenPdf::3                  12373                       # What write queue length does an incoming req see
system.mem_ctrls0.wrQLenPdf::4                  11945                       # What write queue length does an incoming req see
system.mem_ctrls0.wrQLenPdf::5                    397                       # What write queue length does an incoming req see
system.mem_ctrls0.wrQLenPdf::6                    177                       # What write queue length does an incoming req see
system.mem_ctrls0.wrQLenPdf::7                    236                       # What write queue length does an incoming req see
system.mem_ctrls0.bytesPerActivate::samples        52951                       # Bytes accessed per row activation
system.mem_ctrls0.bytesPerActivate::mean   168.659478                       # Bytes accessed per row activation
system.mem_ctrls0.bytesPerActivate::gmean   119.779810                       # Bytes accessed per row activation
system.mem_ctrls0.bytesPerActivate::stdev   174.902604                       # Bytes accessed per row activation
system.mem_ctrls0.bytesPerActivate::0-127        27331     51.62%     51.62% # Bytes accessed per row activation
system.mem_ctrls0.bytesPerActivate::128-255        12967     24.49%     76.10% # Bytes accessed per row activation
system.mem_ctrls0.bytesPerActivate::256-383         7672     14.49%     90.59% # Bytes accessed per row activation
system.mem_ctrls0.bytesPerActivate::384-511         1940      3.66%     94.26% # Bytes accessed per row activation
system.mem_ctrls0.bytesPerActivate::512-639         1159      2.19%     96.45% # Bytes accessed per row activation
system.mem_ctrls0.bytesPerActivate::640-767          596      1.13%     97.57% # Bytes accessed per row activation
system.mem_ctrls0.bytesPerActivate::768-895          401      0.76%     98.33% # Bytes accessed per row activation
system.mem_ctrls0.bytesPerActivate::896-1023          322      0.61%     98.94% # Bytes accessed per row activation
system.mem_ctrls0.bytesPerActivate::1024-1151          563      1.06%    100.00% # Bytes accessed per row activation
system.mem_ctrls0.bytesPerActivate::total        52951                       # Bytes accessed per row activation
system.mem_ctrls0.rdPerTurnAround::samples        11531                       # Reads before turning the bus around for writes
system.mem_ctrls0.rdPerTurnAround::mean      6.730119                       # Reads before turning the bus around for writes
system.mem_ctrls0.rdPerTurnAround::stdev    37.600329                       # Reads before turning the bus around for writes
system.mem_ctrls0.rdPerTurnAround::0-127        11525     99.95%     99.95% # Reads before turning the bus around for writes
system.mem_ctrls0.rdPerTurnAround::128-255            5      0.04%     99.99% # Reads before turning the bus around for writes
system.mem_ctrls0.rdPerTurnAround::3968-4095            1      0.01%    100.00% # Reads before turning the bus around for writes
system.mem_ctrls0.rdPerTurnAround::total        11531                       # Reads before turning the bus around for writes
system.mem_ctrls0.wrPerTurnAround::samples        11531                       # Writes before turning the bus around for reads
system.mem_ctrls0.wrPerTurnAround::mean      5.372214                       # Writes before turning the bus around for reads
system.mem_ctrls0.wrPerTurnAround::gmean     5.295006                       # Writes before turning the bus around for reads
system.mem_ctrls0.wrPerTurnAround::stdev     1.132982                       # Writes before turning the bus around for reads
system.mem_ctrls0.wrPerTurnAround::4-7          11043     95.77%     95.77% # Writes before turning the bus around for reads
system.mem_ctrls0.wrPerTurnAround::8-11           406      3.52%     99.29% # Writes before turning the bus around for reads
system.mem_ctrls0.wrPerTurnAround::12-15           58      0.50%     99.79% # Writes before turning the bus around for reads
system.mem_ctrls0.wrPerTurnAround::16-19           24      0.21%    100.00% # Writes before turning the bus around for reads
system.mem_ctrls0.wrPerTurnAround::total        11531                       # Writes before turning the bus around for reads
system.mem_ctrls0.totQLat                  1862402586                       # Total ticks spent queuing
system.mem_ctrls0.totMemAccLat             3317627586                       # Total ticks spent from burst creation until serviced by the DRAM
system.mem_ctrls0.totBusLat                 388060000                       # Total ticks spent in databus transfers
system.mem_ctrls0.avgQLat                    23996.32                       # Average queueing delay per DRAM burst
system.mem_ctrls0.avgBusLat                   5000.00                       # Average bus latency per DRAM burst
system.mem_ctrls0.avgMemAccLat               42746.32                       # Average memory access latency per DRAM burst
system.mem_ctrls0.avgRdBW                      130.66                       # Average DRAM read bandwidth in MiByte/s
system.mem_ctrls0.avgWrBW                      104.29                       # Average achieved write bandwidth in MiByte/s
system.mem_ctrls0.avgRdBWSys                   130.69                       # Average system read bandwidth in MiByte/s
system.mem_ctrls0.avgWrBWSys                   104.29                       # Average system write bandwidth in MiByte/s
system.mem_ctrls0.peakBW                     12800.00                       # Theoretical peak bandwidth in MiByte/s
system.mem_ctrls0.busUtil                        1.84                       # Data bus utilization in percentage
system.mem_ctrls0.busUtilRead                    1.02                       # Data bus utilization in percentage for reads
system.mem_ctrls0.busUtilWrite                   0.81                       # Data bus utilization in percentage for writes
system.mem_ctrls0.avgRdQLen                      1.10                       # Average read queue length when enqueuing
system.mem_ctrls0.avgWrQLen                      2.85                       # Average write queue length when enqueuing
system.mem_ctrls0.readRowHits                   53389                       # Number of row buffer hits during reads
system.mem_ctrls0.writeRowHits                  33211                       # Number of row buffer hits during writes
system.mem_ctrls0.readRowHitRate                68.79                       # Row buffer hit rate for reads
system.mem_ctrls0.writeRowHitRate               53.61                       # Row buffer hit rate for writes
system.mem_ctrls0.avgGap                    272353.80                       # Average gap between requests
system.mem_ctrls0.pageHitRate                   62.05                       # Row buffer hit rate, read and write combined
system.mem_ctrls0.memoryStateTime::IDLE    8541202000                       # Time in different power states
system.mem_ctrls0.memoryStateTime::REF     1269320000                       # Time in different power states
system.mem_ctrls0.memoryStateTime::PRE_PDN            0                       # Time in different power states
system.mem_ctrls0.memoryStateTime::ACT    28202224250                       # Time in different power states
system.mem_ctrls0.memoryStateTime::ACT_PDN            0                       # Time in different power states
system.mem_ctrls0.actEnergy::0              199863720                       # Energy for activate commands per rank (pJ)
system.mem_ctrls0.actEnergy::1              200408040                       # Energy for activate commands per rank (pJ)
system.mem_ctrls0.preEnergy::0              109052625                       # Energy for precharge commands per rank (pJ)
system.mem_ctrls0.preEnergy::1              109349625                       # Energy for precharge commands per rank (pJ)
system.mem_ctrls0.readEnergy::0             305058000                       # Energy for read commands per rank (pJ)
system.mem_ctrls0.readEnergy::1             300198600                       # Energy for read commands per rank (pJ)
system.mem_ctrls0.writeEnergy::0            199486800                       # Energy for write commands per rank (pJ)
system.mem_ctrls0.writeEnergy::1            201864960                       # Energy for write commands per rank (pJ)
system.mem_ctrls0.refreshEnergy::0         2482789920                       # Energy for refresh commands per rank (pJ)
system.mem_ctrls0.refreshEnergy::1         2482789920                       # Energy for refresh commands per rank (pJ)
system.mem_ctrls0.actBackEnergy::0        15288467040                       # Energy for active background per rank (pJ)
system.mem_ctrls0.actBackEnergy::1        14829693705                       # Energy for active background per rank (pJ)
system.mem_ctrls0.preBackEnergy::0         9396703500                       # Energy for precharge background per rank (pJ)
system.mem_ctrls0.preBackEnergy::1         9799136250                       # Energy for precharge background per rank (pJ)
system.mem_ctrls0.totalEnergy::0          27981421605                       # Total energy per rank (pJ)
system.mem_ctrls0.totalEnergy::1          27923441100                       # Total energy per rank (pJ)
system.mem_ctrls0.averagePower::0          736.106556                       # Core power per rank (mW)
system.mem_ctrls0.averagePower::1          734.581264                       # Core power per rank (mW)
system.mem_ctrls1.bytes_read::ruby.dir_cntrl1      4881664                       # Number of bytes read from this memory
system.mem_ctrls1.bytes_read::total           4881664                       # Number of bytes read from this memory
system.mem_ctrls1.bytes_written::ruby.dir_cntrl1      3885440                       # Number of bytes written to this memory
system.mem_ctrls1.bytes_written::total        3885440                       # Number of bytes written to this memory
system.mem_ctrls1.num_reads::ruby.dir_cntrl1        76276                       # Number of read requests responded to by this memory
system.mem_ctrls1.num_reads::total              76276                       # Number of read requests responded to by this memory
system.mem_ctrls1.num_writes::ruby.dir_cntrl1        60710                       # Number of write requests responded to by this memory
system.mem_ctrls1.num_writes::total             60710                       # Number of write requests responded to by this memory
system.mem_ctrls1.bw_read::ruby.dir_cntrl1    128410170                       # Total read bandwidth from this memory (bytes/s)
system.mem_ctrls1.bw_read::total            128410170                       # Total read bandwidth from this memory (bytes/s)
system.mem_ctrls1.bw_write::ruby.dir_cntrl1    102204906                       # Write bandwidth from this memory (bytes/s)
system.mem_ctrls1.bw_write::total           102204906                       # Write bandwidth from this memory (bytes/s)
system.mem_ctrls1.bw_total::ruby.dir_cntrl1    230615076                       # Total bandwidth to/from this memory (bytes/s)
system.mem_ctrls1.bw_total::total           230615076                       # Total bandwidth to/from this memory (bytes/s)
system.mem_ctrls1.readReqs                      76276                       # Number of read requests accepted
system.mem_ctrls1.writeReqs                     60710                       # Number of write requests accepted
system.mem_ctrls1.readBursts                    76276                       # Number of DRAM read bursts, including those serviced by the write queue
system.mem_ctrls1.writeBursts                   60710                       # Number of DRAM write bursts, including those merged in the write queue
system.mem_ctrls1.bytesReadDRAM               4880832                       # Total number of bytes read from DRAM
system.mem_ctrls1.bytesReadWrQ                    832                       # Total number of bytes read from write queue
system.mem_ctrls1.bytesWritten                3885376                       # Total number of bytes written to DRAM
system.mem_ctrls1.bytesReadSys                4881664                       # Total read bytes from the system interface side
system.mem_ctrls1.bytesWrittenSys             3885440                       # Total written bytes from the system interface side
system.mem_ctrls1.servicedByWrQ                    13                       # Number of DRAM read bursts serviced by the write queue
system.mem_ctrls1.mergedWrBursts                    0                       # Number of DRAM write bursts merged with an existing one
system.mem_ctrls1.neitherReadNorWriteReqs            0                       # Number of requests that are neither read nor write
system.mem_ctrls1.perBankRdBursts::0             4325                       # Per bank write bursts
system.mem_ctrls1.perBankRdBursts::1             4748                       # Per bank write bursts
system.mem_ctrls1.perBankRdBursts::2             4461                       # Per bank write bursts
system.mem_ctrls1.perBankRdBursts::3             4894                       # Per bank write bursts
system.mem_ctrls1.perBankRdBursts::4             4783                       # Per bank write bursts
system.mem_ctrls1.perBankRdBursts::5             5298                       # Per bank write bursts
system.mem_ctrls1.perBankRdBursts::6             4885                       # Per bank write bursts
system.mem_ctrls1.perBankRdBursts::7             5161                       # Per bank write bursts
system.mem_ctrls1.perBankRdBursts::8             4937                       # Per bank write bursts
system.mem_ctrls1.perBankRdBursts::9             5090                       # Per bank write bursts
system.mem_ctrls1.perBankRdBursts::10            4517                       # Per bank write bursts
system.mem_ctrls1.perBankRdBursts::11            4727                       # Per bank write bursts
system.mem_ctrls1.perBankRdBursts::12            4493                       # Per bank write bursts
system.mem_ctrls1.perBankRdBursts::13            4570                       # Per bank write bursts
system.mem_ctrls1.perBankRdBursts::14            4635                       # Per bank write bursts
system.mem_ctrls1.perBankRdBursts::15            4739                       # Per bank write bursts
system.mem_ctrls1.perBankWrBursts::0             3557                       # Per bank write bursts
system.mem_ctrls1.perBankWrBursts::1             3506                       # Per bank write bursts
system.mem_ctrls1.perBankWrBursts::2             3574                       # Per bank write bursts
system.mem_ctrls1.perBankWrBursts::3             3743                       # Per bank write bursts
system.mem_ctrls1.perBankWrBursts::4             3792                       # Per bank write bursts
system.mem_ctrls1.perBankWrBursts::5             4122                       # Per bank write bursts
system.mem_ctrls1.perBankWrBursts::6             3850                       # Per bank write bursts
system.mem_ctrls1.perBankWrBursts::7             4097                       # Per bank write bursts
system.mem_ctrls1.perBankWrBursts::8             3968                       # Per bank write bursts
system.mem_ctrls1.perBankWrBursts::9             4035                       # Per bank write bursts
system.mem_ctrls1.perBankWrBursts::10            3616                       # Per bank write bursts
system.mem_ctrls1.perBankWrBursts::11            3570                       # Per bank write bursts
system.mem_ctrls1.perBankWrBursts::12            3719                       # Per bank write bursts
system.mem_ctrls1.perBankWrBursts::13            3826                       # Per bank write bursts
system.mem_ctrls1.perBankWrBursts::14            3898                       # Per bank write bursts
system.mem_ctrls1.perBankWrBursts::15            3836                       # Per bank write bursts
system.mem_ctrls1.numRdRetry                        0                       # Number of times read queue was full causing retry
system.mem_ctrls1.numWrRetry                      173                       # Number of times write queue was full causing retry
system.mem_ctrls1.totGap                  38015451000                       # Total gap between requests
system.mem_ctrls1.readPktSize::0                    0                       # Read request sizes (log2)
system.mem_ctrls1.readPktSize::1                    0                       # Read request sizes (log2)
system.mem_ctrls1.readPktSize::2                    0                       # Read request sizes (log2)
system.mem_ctrls1.readPktSize::3                    0                       # Read request sizes (log2)
system.mem_ctrls1.readPktSize::4                    0                       # Read request sizes (log2)
system.mem_ctrls1.readPktSize::5                    0                       # Read request sizes (log2)
system.mem_ctrls1.readPktSize::6                76276                       # Read request sizes (log2)
system.mem_ctrls1.writePktSize::0                   0                       # Write request sizes (log2)
system.mem_ctrls1.writePktSize::1                   0                       # Write request sizes (log2)
system.mem_ctrls1.writePktSize::2                   0                       # Write request sizes (log2)
system.mem_ctrls1.writePktSize::3                   0                       # Write request sizes (log2)
system.mem_ctrls1.writePktSize::4                   0                       # Write request sizes (log2)
system.mem_ctrls1.writePktSize::5                   0                       # Write request sizes (log2)
system.mem_ctrls1.writePktSize::6               60710                       # Write request sizes (log2)
system.mem_ctrls1.rdQLenPdf::0                  59315                       # What read queue length does an incoming req see
system.mem_ctrls1.rdQLenPdf::1                  10020                       # What read queue length does an incoming req see
system.mem_ctrls1.rdQLenPdf::2                   3283                       # What read queue length does an incoming req see
system.mem_ctrls1.rdQLenPdf::3                   1395                       # What read queue length does an incoming req see
system.mem_ctrls1.rdQLenPdf::4                    792                       # What read queue length does an incoming req see
system.mem_ctrls1.rdQLenPdf::5                    470                       # What read queue length does an incoming req see
system.mem_ctrls1.rdQLenPdf::6                    273                       # What read queue length does an incoming req see
system.mem_ctrls1.rdQLenPdf::7                    161                       # What read queue length does an incoming req see
system.mem_ctrls1.rdQLenPdf::8                     94                       # What read queue length does an incoming req see
system.mem_ctrls1.rdQLenPdf::9                     78                       # What read queue length does an incoming req see
system.mem_ctrls1.rdQLenPdf::10                    57                       # What read queue length does an incoming req see
system.mem_ctrls1.rdQLenPdf::11                    54                       # What read queue length does an incoming req see
system.mem_ctrls1.rdQLenPdf::12                    46                       # What read queue length does an incoming req see
system.mem_ctrls1.rdQLenPdf::13                    35                       # What read queue length does an incoming req see
system.mem_ctrls1.rdQLenPdf::14                    28                       # What read queue length does an incoming req see
system.mem_ctrls1.rdQLenPdf::15                    25                       # What read queue length does an incoming req see
system.mem_ctrls1.rdQLenPdf::16                    29                       # What read queue length does an incoming req see
system.mem_ctrls1.rdQLenPdf::17                    22                       # What read queue length does an incoming req see
system.mem_ctrls1.rdQLenPdf::18                    17                       # What read queue length does an incoming req see
system.mem_ctrls1.rdQLenPdf::19                    15                       # What read queue length does an incoming req see
system.mem_ctrls1.rdQLenPdf::20                    16                       # What read queue length does an incoming req see
system.mem_ctrls1.rdQLenPdf::21                    11                       # What read queue length does an incoming req see
system.mem_ctrls1.rdQLenPdf::22                     6                       # What read queue length does an incoming req see
system.mem_ctrls1.rdQLenPdf::23                     4                       # What read queue length does an incoming req see
system.mem_ctrls1.rdQLenPdf::24                     4                       # What read queue length does an incoming req see
system.mem_ctrls1.rdQLenPdf::25                     3                       # What read queue length does an incoming req see
system.mem_ctrls1.rdQLenPdf::26                     5                       # What read queue length does an incoming req see
system.mem_ctrls1.rdQLenPdf::27                     2                       # What read queue length does an incoming req see
system.mem_ctrls1.rdQLenPdf::28                     2                       # What read queue length does an incoming req see
system.mem_ctrls1.rdQLenPdf::29                     1                       # What read queue length does an incoming req see
system.mem_ctrls1.rdQLenPdf::30                     0                       # What read queue length does an incoming req see
system.mem_ctrls1.rdQLenPdf::31                     0                       # What read queue length does an incoming req see
system.mem_ctrls1.wrQLenPdf::0                  11311                       # What write queue length does an incoming req see
system.mem_ctrls1.wrQLenPdf::1                  12331                       # What write queue length does an incoming req see
system.mem_ctrls1.wrQLenPdf::2                  12335                       # What write queue length does an incoming req see
system.mem_ctrls1.wrQLenPdf::3                  12118                       # What write queue length does an incoming req see
system.mem_ctrls1.wrQLenPdf::4                  11735                       # What write queue length does an incoming req see
system.mem_ctrls1.wrQLenPdf::5                    429                       # What write queue length does an incoming req see
system.mem_ctrls1.wrQLenPdf::6                    180                       # What write queue length does an incoming req see
system.mem_ctrls1.wrQLenPdf::7                    271                       # What write queue length does an incoming req see
system.mem_ctrls1.bytesPerActivate::samples        50911                       # Bytes accessed per row activation
system.mem_ctrls1.bytesPerActivate::mean   172.165544                       # Bytes accessed per row activation
system.mem_ctrls1.bytesPerActivate::gmean   121.585583                       # Bytes accessed per row activation
system.mem_ctrls1.bytesPerActivate::stdev   179.075544                       # Bytes accessed per row activation
system.mem_ctrls1.bytesPerActivate::0-127        25918     50.91%     50.91% # Bytes accessed per row activation
system.mem_ctrls1.bytesPerActivate::128-255        12429     24.41%     75.32% # Bytes accessed per row activation
system.mem_ctrls1.bytesPerActivate::256-383         7616     14.96%     90.28% # Bytes accessed per row activation
system.mem_ctrls1.bytesPerActivate::384-511         1917      3.77%     94.05% # Bytes accessed per row activation
system.mem_ctrls1.bytesPerActivate::512-639         1085      2.13%     96.18% # Bytes accessed per row activation
system.mem_ctrls1.bytesPerActivate::640-767          600      1.18%     97.36% # Bytes accessed per row activation
system.mem_ctrls1.bytesPerActivate::768-895          419      0.82%     98.18% # Bytes accessed per row activation
system.mem_ctrls1.bytesPerActivate::896-1023          315      0.62%     98.80% # Bytes accessed per row activation
system.mem_ctrls1.bytesPerActivate::1024-1151          612      1.20%    100.00% # Bytes accessed per row activation
system.mem_ctrls1.bytesPerActivate::total        50911                       # Bytes accessed per row activation
system.mem_ctrls1.rdPerTurnAround::samples        11332                       # Reads before turning the bus around for writes
system.mem_ctrls1.rdPerTurnAround::mean      6.729615                       # Reads before turning the bus around for writes
system.mem_ctrls1.rdPerTurnAround::stdev    29.905900                       # Reads before turning the bus around for writes
system.mem_ctrls1.rdPerTurnAround::0-127        11327     99.96%     99.96% # Reads before turning the bus around for writes
system.mem_ctrls1.rdPerTurnAround::128-255            3      0.03%     99.98% # Reads before turning the bus around for writes
system.mem_ctrls1.rdPerTurnAround::1152-1279            1      0.01%     99.99% # Reads before turning the bus around for writes
system.mem_ctrls1.rdPerTurnAround::2816-2943            1      0.01%    100.00% # Reads before turning the bus around for writes
system.mem_ctrls1.rdPerTurnAround::total        11332                       # Reads before turning the bus around for writes
system.mem_ctrls1.wrPerTurnAround::samples        11332                       # Writes before turning the bus around for reads
system.mem_ctrls1.wrPerTurnAround::mean      5.357307                       # Writes before turning the bus around for reads
system.mem_ctrls1.wrPerTurnAround::gmean     5.279187                       # Writes before turning the bus around for reads
system.mem_ctrls1.wrPerTurnAround::stdev     1.154864                       # Writes before turning the bus around for reads
system.mem_ctrls1.wrPerTurnAround::4-7          10863     95.86%     95.86% # Writes before turning the bus around for reads
system.mem_ctrls1.wrPerTurnAround::8-11           375      3.31%     99.17% # Writes before turning the bus around for reads
system.mem_ctrls1.wrPerTurnAround::12-15           67      0.59%     99.76% # Writes before turning the bus around for reads
system.mem_ctrls1.wrPerTurnAround::16-19           27      0.24%    100.00% # Writes before turning the bus around for reads
system.mem_ctrls1.wrPerTurnAround::total        11332                       # Writes before turning the bus around for reads
system.mem_ctrls1.totQLat                  1783423330                       # Total ticks spent queuing
system.mem_ctrls1.totMemAccLat             3213354580                       # Total ticks spent from burst creation until serviced by the DRAM
system.mem_ctrls1.totBusLat                 381315000                       # Total ticks spent in databus transfers
system.mem_ctrls1.avgQLat                    23385.17                       # Average queueing delay per DRAM burst
system.mem_ctrls1.avgBusLat                   5000.00                       # Average bus latency per DRAM burst
system.mem_ctrls1.avgMemAccLat               42135.17                       # Average memory access latency per DRAM burst
system.mem_ctrls1.avgRdBW                      128.39                       # Average DRAM read bandwidth in MiByte/s
system.mem_ctrls1.avgWrBW                      102.20                       # Average achieved write bandwidth in MiByte/s
system.mem_ctrls1.avgRdBWSys                   128.41                       # Average system read bandwidth in MiByte/s
system.mem_ctrls1.avgWrBWSys                   102.20                       # Average system write bandwidth in MiByte/s
system.mem_ctrls1.peakBW                     12800.00                       # Theoretical peak bandwidth in MiByte/s
system.mem_ctrls1.busUtil                        1.80                       # Data bus utilization in percentage
system.mem_ctrls1.busUtilRead                    1.00                       # Data bus utilization in percentage for reads
system.mem_ctrls1.busUtilWrite                   0.80                       # Data bus utilization in percentage for writes
system.mem_ctrls1.avgRdQLen                      1.07                       # Average read queue length when enqueuing
system.mem_ctrls1.avgWrQLen                      2.91                       # Average write queue length when enqueuing
system.mem_ctrls1.readRowHits                   52649                       # Number of row buffer hits during reads
system.mem_ctrls1.writeRowHits                  33401                       # Number of row buffer hits during writes
system.mem_ctrls1.readRowHitRate                69.04                       # Row buffer hit rate for reads
system.mem_ctrls1.writeRowHitRate               55.02                       # Row buffer hit rate for writes
system.mem_ctrls1.avgGap                    277513.40                       # Average gap between requests
system.mem_ctrls1.pageHitRate                   62.82                       # Row buffer hit rate, read and write combined
system.mem_ctrls1.memoryStateTime::IDLE    8903870250                       # Time in different power states
system.mem_ctrls1.memoryStateTime::REF     1269320000                       # Time in different power states
system.mem_ctrls1.memoryStateTime::PRE_PDN            0                       # Time in different power states
system.mem_ctrls1.memoryStateTime::ACT    27839926750                       # Time in different power states
system.mem_ctrls1.memoryStateTime::ACT_PDN            0                       # Time in different power states
system.mem_ctrls1.actEnergy::0              193800600                       # Energy for activate commands per rank (pJ)
system.mem_ctrls1.actEnergy::1              191018520                       # Energy for activate commands per rank (pJ)
system.mem_ctrls1.preEnergy::0              105744375                       # Energy for precharge commands per rank (pJ)
system.mem_ctrls1.preEnergy::1              104226375                       # Energy for precharge commands per rank (pJ)
system.mem_ctrls1.readEnergy::0             300643200                       # Energy for read commands per rank (pJ)
system.mem_ctrls1.readEnergy::1             294060000                       # Energy for read commands per rank (pJ)
system.mem_ctrls1.writeEnergy::0            195955200                       # Energy for write commands per rank (pJ)
system.mem_ctrls1.writeEnergy::1            197341920                       # Energy for write commands per rank (pJ)
system.mem_ctrls1.refreshEnergy::0         2482789920                       # Energy for refresh commands per rank (pJ)
system.mem_ctrls1.refreshEnergy::1         2482789920                       # Energy for refresh commands per rank (pJ)
system.mem_ctrls1.actBackEnergy::0        15153894315                       # Energy for active background per rank (pJ)
system.mem_ctrls1.actBackEnergy::1        14423424210                       # Energy for active background per rank (pJ)
system.mem_ctrls1.preBackEnergy::0         9514749750                       # Energy for precharge background per rank (pJ)
system.mem_ctrls1.preBackEnergy::1        10155513000                       # Energy for precharge background per rank (pJ)
system.mem_ctrls1.totalEnergy::0          27947577360                       # Total energy per rank (pJ)
system.mem_ctrls1.totalEnergy::1          27848373945                       # Total energy per rank (pJ)
system.mem_ctrls1.averagePower::0          735.216216                       # Core power per rank (mW)
system.mem_ctrls1.averagePower::1          732.606475                       # Core power per rank (mW)
system.mem_ctrls2.bytes_read::ruby.dir_cntrl2      4880704                       # Number of bytes read from this memory
system.mem_ctrls2.bytes_read::total           4880704                       # Number of bytes read from this memory
system.mem_ctrls2.bytes_written::ruby.dir_cntrl2      3885120                       # Number of bytes written to this memory
system.mem_ctrls2.bytes_written::total        3885120                       # Number of bytes written to this memory
system.mem_ctrls2.num_reads::ruby.dir_cntrl2        76261                       # Number of read requests responded to by this memory
system.mem_ctrls2.num_reads::total              76261                       # Number of read requests responded to by this memory
system.mem_ctrls2.num_writes::ruby.dir_cntrl2        60705                       # Number of write requests responded to by this memory
system.mem_ctrls2.num_writes::total             60705                       # Number of write requests responded to by this memory
system.mem_ctrls2.bw_read::ruby.dir_cntrl2    128384917                       # Total read bandwidth from this memory (bytes/s)
system.mem_ctrls2.bw_read::total            128384917                       # Total read bandwidth from this memory (bytes/s)
system.mem_ctrls2.bw_write::ruby.dir_cntrl2    102196489                       # Write bandwidth from this memory (bytes/s)
system.mem_ctrls2.bw_write::total           102196489                       # Write bandwidth from this memory (bytes/s)
system.mem_ctrls2.bw_total::ruby.dir_cntrl2    230581406                       # Total bandwidth to/from this memory (bytes/s)
system.mem_ctrls2.bw_total::total           230581406                       # Total bandwidth to/from this memory (bytes/s)
system.mem_ctrls2.readReqs                      76261                       # Number of read requests accepted
system.mem_ctrls2.writeReqs                     60705                       # Number of write requests accepted
system.mem_ctrls2.readBursts                    76261                       # Number of DRAM read bursts, including those serviced by the write queue
system.mem_ctrls2.writeBursts                   60705                       # Number of DRAM write bursts, including those merged in the write queue
system.mem_ctrls2.bytesReadDRAM               4879744                       # Total number of bytes read from DRAM
system.mem_ctrls2.bytesReadWrQ                    960                       # Total number of bytes read from write queue
system.mem_ctrls2.bytesWritten                3885120                       # Total number of bytes written to DRAM
system.mem_ctrls2.bytesReadSys                4880704                       # Total read bytes from the system interface side
system.mem_ctrls2.bytesWrittenSys             3885120                       # Total written bytes from the system interface side
system.mem_ctrls2.servicedByWrQ                    15                       # Number of DRAM read bursts serviced by the write queue
system.mem_ctrls2.mergedWrBursts                    0                       # Number of DRAM write bursts merged with an existing one
system.mem_ctrls2.neitherReadNorWriteReqs            0                       # Number of requests that are neither read nor write
system.mem_ctrls2.perBankRdBursts::0             4318                       # Per bank write bursts
system.mem_ctrls2.perBankRdBursts::1             4753                       # Per bank write bursts
system.mem_ctrls2.perBankRdBursts::2             4466                       # Per bank write bursts
system.mem_ctrls2.perBankRdBursts::3             4903                       # Per bank write bursts
system.mem_ctrls2.perBankRdBursts::4             4777                       # Per bank write bursts
system.mem_ctrls2.perBankRdBursts::5             5293                       # Per bank write bursts
system.mem_ctrls2.perBankRdBursts::6             4862                       # Per bank write bursts
system.mem_ctrls2.perBankRdBursts::7             5159                       # Per bank write bursts
system.mem_ctrls2.perBankRdBursts::8             4917                       # Per bank write bursts
system.mem_ctrls2.perBankRdBursts::9             5100                       # Per bank write bursts
system.mem_ctrls2.perBankRdBursts::10            4520                       # Per bank write bursts
system.mem_ctrls2.perBankRdBursts::11            4768                       # Per bank write bursts
system.mem_ctrls2.perBankRdBursts::12            4492                       # Per bank write bursts
system.mem_ctrls2.perBankRdBursts::13            4542                       # Per bank write bursts
system.mem_ctrls2.perBankRdBursts::14            4623                       # Per bank write bursts
system.mem_ctrls2.perBankRdBursts::15            4753                       # Per bank write bursts
system.mem_ctrls2.perBankWrBursts::0             3554                       # Per bank write bursts
system.mem_ctrls2.perBankWrBursts::1             3508                       # Per bank write bursts
system.mem_ctrls2.perBankWrBursts::2             3568                       # Per bank write bursts
system.mem_ctrls2.perBankWrBursts::3             3732                       # Per bank write bursts
system.mem_ctrls2.perBankWrBursts::4             3787                       # Per bank write bursts
system.mem_ctrls2.perBankWrBursts::5             4117                       # Per bank write bursts
system.mem_ctrls2.perBankWrBursts::6             3853                       # Per bank write bursts
system.mem_ctrls2.perBankWrBursts::7             4111                       # Per bank write bursts
system.mem_ctrls2.perBankWrBursts::8             3966                       # Per bank write bursts
system.mem_ctrls2.perBankWrBursts::9             4044                       # Per bank write bursts
system.mem_ctrls2.perBankWrBursts::10            3616                       # Per bank write bursts
system.mem_ctrls2.perBankWrBursts::11            3577                       # Per bank write bursts
system.mem_ctrls2.perBankWrBursts::12            3720                       # Per bank write bursts
system.mem_ctrls2.perBankWrBursts::13            3821                       # Per bank write bursts
system.mem_ctrls2.perBankWrBursts::14            3894                       # Per bank write bursts
system.mem_ctrls2.perBankWrBursts::15            3837                       # Per bank write bursts
system.mem_ctrls2.numRdRetry                        0                       # Number of times read queue was full causing retry
system.mem_ctrls2.numWrRetry                      118                       # Number of times write queue was full causing retry
system.mem_ctrls2.totGap                  38015939000                       # Total gap between requests
system.mem_ctrls2.readPktSize::0                    0                       # Read request sizes (log2)
system.mem_ctrls2.readPktSize::1                    0                       # Read request sizes (log2)
system.mem_ctrls2.readPktSize::2                    0                       # Read request sizes (log2)
system.mem_ctrls2.readPktSize::3                    0                       # Read request sizes (log2)
system.mem_ctrls2.readPktSize::4                    0                       # Read request sizes (log2)
system.mem_ctrls2.readPktSize::5                    0                       # Read request sizes (log2)
system.mem_ctrls2.readPktSize::6                76261                       # Read request sizes (log2)
system.mem_ctrls2.writePktSize::0                   0                       # Write request sizes (log2)
system.mem_ctrls2.writePktSize::1                   0                       # Write request sizes (log2)
system.mem_ctrls2.writePktSize::2                   0                       # Write request sizes (log2)
system.mem_ctrls2.writePktSize::3                   0                       # Write request sizes (log2)
system.mem_ctrls2.writePktSize::4                   0                       # Write request sizes (log2)
system.mem_ctrls2.writePktSize::5                   0                       # Write request sizes (log2)
system.mem_ctrls2.writePktSize::6               60705                       # Write request sizes (log2)
system.mem_ctrls2.rdQLenPdf::0                  59446                       # What read queue length does an incoming req see
system.mem_ctrls2.rdQLenPdf::1                  10004                       # What read queue length does an incoming req see
system.mem_ctrls2.rdQLenPdf::2                   3258                       # What read queue length does an incoming req see
system.mem_ctrls2.rdQLenPdf::3                   1380                       # What read queue length does an incoming req see
system.mem_ctrls2.rdQLenPdf::4                    762                       # What read queue length does an incoming req see
system.mem_ctrls2.rdQLenPdf::5                    465                       # What read queue length does an incoming req see
system.mem_ctrls2.rdQLenPdf::6                    292                       # What read queue length does an incoming req see
system.mem_ctrls2.rdQLenPdf::7                    172                       # What read queue length does an incoming req see
system.mem_ctrls2.rdQLenPdf::8                    100                       # What read queue length does an incoming req see
system.mem_ctrls2.rdQLenPdf::9                     64                       # What read queue length does an incoming req see
system.mem_ctrls2.rdQLenPdf::10                    45                       # What read queue length does an incoming req see
system.mem_ctrls2.rdQLenPdf::11                    38                       # What read queue length does an incoming req see
system.mem_ctrls2.rdQLenPdf::12                    35                       # What read queue length does an incoming req see
system.mem_ctrls2.rdQLenPdf::13                    37                       # What read queue length does an incoming req see
system.mem_ctrls2.rdQLenPdf::14                    28                       # What read queue length does an incoming req see
system.mem_ctrls2.rdQLenPdf::15                    26                       # What read queue length does an incoming req see
system.mem_ctrls2.rdQLenPdf::16                    23                       # What read queue length does an incoming req see
system.mem_ctrls2.rdQLenPdf::17                    17                       # What read queue length does an incoming req see
system.mem_ctrls2.rdQLenPdf::18                    17                       # What read queue length does an incoming req see
system.mem_ctrls2.rdQLenPdf::19                    12                       # What read queue length does an incoming req see
system.mem_ctrls2.rdQLenPdf::20                     9                       # What read queue length does an incoming req see
system.mem_ctrls2.rdQLenPdf::21                     7                       # What read queue length does an incoming req see
system.mem_ctrls2.rdQLenPdf::22                     3                       # What read queue length does an incoming req see
system.mem_ctrls2.rdQLenPdf::23                     2                       # What read queue length does an incoming req see
system.mem_ctrls2.rdQLenPdf::24                     2                       # What read queue length does an incoming req see
system.mem_ctrls2.rdQLenPdf::25                     2                       # What read queue length does an incoming req see
system.mem_ctrls2.rdQLenPdf::26                     0                       # What read queue length does an incoming req see
system.mem_ctrls2.rdQLenPdf::27                     0                       # What read queue length does an incoming req see
system.mem_ctrls2.rdQLenPdf::28                     0                       # What read queue length does an incoming req see
system.mem_ctrls2.rdQLenPdf::29                     0                       # What read queue length does an incoming req see
system.mem_ctrls2.rdQLenPdf::30                     0                       # What read queue length does an incoming req see
system.mem_ctrls2.rdQLenPdf::31                     0                       # What read queue length does an incoming req see
system.mem_ctrls2.wrQLenPdf::0                  11311                       # What write queue length does an incoming req see
system.mem_ctrls2.wrQLenPdf::1                  12381                       # What write queue length does an incoming req see
system.mem_ctrls2.wrQLenPdf::2                  12356                       # What write queue length does an incoming req see
system.mem_ctrls2.wrQLenPdf::3                  12103                       # What write queue length does an incoming req see
system.mem_ctrls2.wrQLenPdf::4                  11774                       # What write queue length does an incoming req see
system.mem_ctrls2.wrQLenPdf::5                    401                       # What write queue length does an incoming req see
system.mem_ctrls2.wrQLenPdf::6                    169                       # What write queue length does an incoming req see
system.mem_ctrls2.wrQLenPdf::7                    210                       # What write queue length does an incoming req see
system.mem_ctrls2.bytesPerActivate::samples        50969                       # Bytes accessed per row activation
system.mem_ctrls2.bytesPerActivate::mean   171.940748                       # Bytes accessed per row activation
system.mem_ctrls2.bytesPerActivate::gmean   121.499145                       # Bytes accessed per row activation
system.mem_ctrls2.bytesPerActivate::stdev   178.530296                       # Bytes accessed per row activation
system.mem_ctrls2.bytesPerActivate::0-127        25935     50.88%     50.88% # Bytes accessed per row activation
system.mem_ctrls2.bytesPerActivate::128-255        12517     24.56%     75.44% # Bytes accessed per row activation
system.mem_ctrls2.bytesPerActivate::256-383         7532     14.78%     90.22% # Bytes accessed per row activation
system.mem_ctrls2.bytesPerActivate::384-511         1926      3.78%     94.00% # Bytes accessed per row activation
system.mem_ctrls2.bytesPerActivate::512-639         1109      2.18%     96.17% # Bytes accessed per row activation
system.mem_ctrls2.bytesPerActivate::640-767          606      1.19%     97.36% # Bytes accessed per row activation
system.mem_ctrls2.bytesPerActivate::768-895          456      0.89%     98.26% # Bytes accessed per row activation
system.mem_ctrls2.bytesPerActivate::896-1023          292      0.57%     98.83% # Bytes accessed per row activation
system.mem_ctrls2.bytesPerActivate::1024-1151          596      1.17%    100.00% # Bytes accessed per row activation
system.mem_ctrls2.bytesPerActivate::total        50969                       # Bytes accessed per row activation
system.mem_ctrls2.rdPerTurnAround::samples        11328                       # Reads before turning the bus around for writes
system.mem_ctrls2.rdPerTurnAround::mean      6.730667                       # Reads before turning the bus around for writes
system.mem_ctrls2.rdPerTurnAround::stdev    29.980688                       # Reads before turning the bus around for writes
system.mem_ctrls2.rdPerTurnAround::0-127        11323     99.96%     99.96% # Reads before turning the bus around for writes
system.mem_ctrls2.rdPerTurnAround::128-255            3      0.03%     99.98% # Reads before turning the bus around for writes
system.mem_ctrls2.rdPerTurnAround::1152-1279            1      0.01%     99.99% # Reads before turning the bus around for writes
system.mem_ctrls2.rdPerTurnAround::2816-2943            1      0.01%    100.00% # Reads before turning the bus around for writes
system.mem_ctrls2.rdPerTurnAround::total        11328                       # Reads before turning the bus around for writes
system.mem_ctrls2.wrPerTurnAround::samples        11328                       # Writes before turning the bus around for reads
system.mem_ctrls2.wrPerTurnAround::mean      5.358845                       # Writes before turning the bus around for reads
system.mem_ctrls2.wrPerTurnAround::gmean     5.282651                       # Writes before turning the bus around for reads
system.mem_ctrls2.wrPerTurnAround::stdev     1.128548                       # Writes before turning the bus around for reads
system.mem_ctrls2.wrPerTurnAround::4-7          10857     95.84%     95.84% # Writes before turning the bus around for reads
system.mem_ctrls2.wrPerTurnAround::8-11           387      3.42%     99.26% # Writes before turning the bus around for reads
system.mem_ctrls2.wrPerTurnAround::12-15           63      0.56%     99.81% # Writes before turning the bus around for reads
system.mem_ctrls2.wrPerTurnAround::16-19           21      0.19%    100.00% # Writes before turning the bus around for reads
system.mem_ctrls2.wrPerTurnAround::total        11328                       # Writes before turning the bus around for reads
system.mem_ctrls2.totQLat                  1803659664                       # Total ticks spent queuing
system.mem_ctrls2.totMemAccLat             3233272164                       # Total ticks spent from burst creation until serviced by the DRAM
system.mem_ctrls2.totBusLat                 381230000                       # Total ticks spent in databus transfers
system.mem_ctrls2.avgQLat                    23655.79                       # Average queueing delay per DRAM burst
system.mem_ctrls2.avgBusLat                   5000.00                       # Average bus latency per DRAM burst
system.mem_ctrls2.avgMemAccLat               42405.79                       # Average memory access latency per DRAM burst
system.mem_ctrls2.avgRdBW                      128.36                       # Average DRAM read bandwidth in MiByte/s
system.mem_ctrls2.avgWrBW                      102.20                       # Average achieved write bandwidth in MiByte/s
system.mem_ctrls2.avgRdBWSys                   128.38                       # Average system read bandwidth in MiByte/s
system.mem_ctrls2.avgWrBWSys                   102.20                       # Average system write bandwidth in MiByte/s
system.mem_ctrls2.peakBW                     12800.00                       # Theoretical peak bandwidth in MiByte/s
system.mem_ctrls2.busUtil                        1.80                       # Data bus utilization in percentage
system.mem_ctrls2.busUtilRead                    1.00                       # Data bus utilization in percentage for reads
system.mem_ctrls2.busUtilWrite                   0.80                       # Data bus utilization in percentage for writes
system.mem_ctrls2.avgRdQLen                      1.07                       # Average read queue length when enqueuing
system.mem_ctrls2.avgWrQLen                      2.93                       # Average write queue length when enqueuing
system.mem_ctrls2.readRowHits                   52644                       # Number of row buffer hits during reads
system.mem_ctrls2.writeRowHits                  33329                       # Number of row buffer hits during writes
system.mem_ctrls2.readRowHitRate                69.04                       # Row buffer hit rate for reads
system.mem_ctrls2.writeRowHitRate               54.90                       # Row buffer hit rate for writes
system.mem_ctrls2.avgGap                    277557.49                       # Average gap between requests
system.mem_ctrls2.pageHitRate                   62.78                       # Row buffer hit rate, read and write combined
system.mem_ctrls2.memoryStateTime::IDLE    8886514250                       # Time in different power states
system.mem_ctrls2.memoryStateTime::REF     1269320000                       # Time in different power states
system.mem_ctrls2.memoryStateTime::PRE_PDN            0                       # Time in different power states
system.mem_ctrls2.memoryStateTime::ACT    27857066750                       # Time in different power states
system.mem_ctrls2.memoryStateTime::ACT_PDN            0                       # Time in different power states
system.mem_ctrls2.actEnergy::0              193702320                       # Energy for activate commands per rank (pJ)
system.mem_ctrls2.actEnergy::1              191593080                       # Energy for activate commands per rank (pJ)
system.mem_ctrls2.preEnergy::0              105690750                       # Energy for precharge commands per rank (pJ)
system.mem_ctrls2.preEnergy::1              104539875                       # Energy for precharge commands per rank (pJ)
system.mem_ctrls2.readEnergy::0             300463800                       # Energy for read commands per rank (pJ)
system.mem_ctrls2.readEnergy::1             294145800                       # Energy for read commands per rank (pJ)
system.mem_ctrls2.writeEnergy::0            195890400                       # Energy for write commands per rank (pJ)
system.mem_ctrls2.writeEnergy::1            197413200                       # Energy for write commands per rank (pJ)
system.mem_ctrls2.refreshEnergy::0         2482789920                       # Energy for refresh commands per rank (pJ)
system.mem_ctrls2.refreshEnergy::1         2482789920                       # Energy for refresh commands per rank (pJ)
system.mem_ctrls2.actBackEnergy::0        15024841470                       # Energy for active background per rank (pJ)
system.mem_ctrls2.actBackEnergy::1        14561650350                       # Energy for active background per rank (pJ)
system.mem_ctrls2.preBackEnergy::0         9627954000                       # Energy for precharge background per rank (pJ)
system.mem_ctrls2.preBackEnergy::1        10034262000                       # Energy for precharge background per rank (pJ)
system.mem_ctrls2.totalEnergy::0          27931332660                       # Total energy per rank (pJ)
system.mem_ctrls2.totalEnergy::1          27866394225                       # Total energy per rank (pJ)
system.mem_ctrls2.averagePower::0          734.788867                       # Core power per rank (mW)
system.mem_ctrls2.averagePower::1          733.080534                       # Core power per rank (mW)
system.mem_ctrls3.bytes_read::ruby.dir_cntrl3      4857472                       # Number of bytes read from this memory
system.mem_ctrls3.bytes_read::total           4857472                       # Number of bytes read from this memory
system.mem_ctrls3.bytes_written::ruby.dir_cntrl3      3878848                       # Number of bytes written to this memory
system.mem_ctrls3.bytes_written::total        3878848                       # Number of bytes written to this memory
system.mem_ctrls3.num_reads::ruby.dir_cntrl3        75898                       # Number of read requests responded to by this memory
system.mem_ctrls3.num_reads::total              75898                       # Number of read requests responded to by this memory
system.mem_ctrls3.num_writes::ruby.dir_cntrl3        60607                       # Number of write requests responded to by this memory
system.mem_ctrls3.num_writes::total             60607                       # Number of write requests responded to by this memory
system.mem_ctrls3.bw_read::ruby.dir_cntrl3    127773809                       # Total read bandwidth from this memory (bytes/s)
system.mem_ctrls3.bw_read::total            127773809                       # Total read bandwidth from this memory (bytes/s)
system.mem_ctrls3.bw_write::ruby.dir_cntrl3    102031506                       # Write bandwidth from this memory (bytes/s)
system.mem_ctrls3.bw_write::total           102031506                       # Write bandwidth from this memory (bytes/s)
system.mem_ctrls3.bw_total::ruby.dir_cntrl3    229805315                       # Total bandwidth to/from this memory (bytes/s)
system.mem_ctrls3.bw_total::total           229805315                       # Total bandwidth to/from this memory (bytes/s)
system.mem_ctrls3.readReqs                      75899                       # Number of read requests accepted
system.mem_ctrls3.writeReqs                     60607                       # Number of write requests accepted
system.mem_ctrls3.readBursts                    75899                       # Number of DRAM read bursts, including those serviced by the write queue
system.mem_ctrls3.writeBursts                   60607                       # Number of DRAM write bursts, including those merged in the write queue
system.mem_ctrls3.bytesReadDRAM               4856960                       # Total number of bytes read from DRAM
system.mem_ctrls3.bytesReadWrQ                    576                       # Total number of bytes read from write queue
system.mem_ctrls3.bytesWritten                3878784                       # Total number of bytes written to DRAM
system.mem_ctrls3.bytesReadSys                4857536                       # Total read bytes from the system interface side
system.mem_ctrls3.bytesWrittenSys             3878848                       # Total written bytes from the system interface side
system.mem_ctrls3.servicedByWrQ                     9                       # Number of DRAM read bursts serviced by the write queue
system.mem_ctrls3.mergedWrBursts                    0                       # Number of DRAM write bursts merged with an existing one
system.mem_ctrls3.neitherReadNorWriteReqs            0                       # Number of requests that are neither read nor write
system.mem_ctrls3.perBankRdBursts::0             4299                       # Per bank write bursts
system.mem_ctrls3.perBankRdBursts::1             4716                       # Per bank write bursts
system.mem_ctrls3.perBankRdBursts::2             4415                       # Per bank write bursts
system.mem_ctrls3.perBankRdBursts::3             4860                       # Per bank write bursts
system.mem_ctrls3.perBankRdBursts::4             4732                       # Per bank write bursts
system.mem_ctrls3.perBankRdBursts::5             5240                       # Per bank write bursts
system.mem_ctrls3.perBankRdBursts::6             4866                       # Per bank write bursts
system.mem_ctrls3.perBankRdBursts::7             5145                       # Per bank write bursts
system.mem_ctrls3.perBankRdBursts::8             4923                       # Per bank write bursts
system.mem_ctrls3.perBankRdBursts::9             5077                       # Per bank write bursts
system.mem_ctrls3.perBankRdBursts::10            4518                       # Per bank write bursts
system.mem_ctrls3.perBankRdBursts::11            4731                       # Per bank write bursts
system.mem_ctrls3.perBankRdBursts::12            4478                       # Per bank write bursts
system.mem_ctrls3.perBankRdBursts::13            4519                       # Per bank write bursts
system.mem_ctrls3.perBankRdBursts::14            4643                       # Per bank write bursts
system.mem_ctrls3.perBankRdBursts::15            4728                       # Per bank write bursts
system.mem_ctrls3.perBankWrBursts::0             3556                       # Per bank write bursts
system.mem_ctrls3.perBankWrBursts::1             3502                       # Per bank write bursts
system.mem_ctrls3.perBankWrBursts::2             3564                       # Per bank write bursts
system.mem_ctrls3.perBankWrBursts::3             3718                       # Per bank write bursts
system.mem_ctrls3.perBankWrBursts::4             3782                       # Per bank write bursts
system.mem_ctrls3.perBankWrBursts::5             4100                       # Per bank write bursts
system.mem_ctrls3.perBankWrBursts::6             3842                       # Per bank write bursts
system.mem_ctrls3.perBankWrBursts::7             4094                       # Per bank write bursts
system.mem_ctrls3.perBankWrBursts::8             3972                       # Per bank write bursts
system.mem_ctrls3.perBankWrBursts::9             4037                       # Per bank write bursts
system.mem_ctrls3.perBankWrBursts::10            3603                       # Per bank write bursts
system.mem_ctrls3.perBankWrBursts::11            3581                       # Per bank write bursts
system.mem_ctrls3.perBankWrBursts::12            3713                       # Per bank write bursts
system.mem_ctrls3.perBankWrBursts::13            3825                       # Per bank write bursts
system.mem_ctrls3.perBankWrBursts::14            3893                       # Per bank write bursts
system.mem_ctrls3.perBankWrBursts::15            3824                       # Per bank write bursts
system.mem_ctrls3.numRdRetry                        4                       # Number of times read queue was full causing retry
system.mem_ctrls3.numWrRetry                      109                       # Number of times write queue was full causing retry
system.mem_ctrls3.totGap                  38015430000                       # Total gap between requests
system.mem_ctrls3.readPktSize::0                    0                       # Read request sizes (log2)
system.mem_ctrls3.readPktSize::1                    0                       # Read request sizes (log2)
system.mem_ctrls3.readPktSize::2                    0                       # Read request sizes (log2)
system.mem_ctrls3.readPktSize::3                    0                       # Read request sizes (log2)
system.mem_ctrls3.readPktSize::4                    0                       # Read request sizes (log2)
system.mem_ctrls3.readPktSize::5                    0                       # Read request sizes (log2)
system.mem_ctrls3.readPktSize::6                75899                       # Read request sizes (log2)
system.mem_ctrls3.writePktSize::0                   0                       # Write request sizes (log2)
system.mem_ctrls3.writePktSize::1                   0                       # Write request sizes (log2)
system.mem_ctrls3.writePktSize::2                   0                       # Write request sizes (log2)
system.mem_ctrls3.writePktSize::3                   0                       # Write request sizes (log2)
system.mem_ctrls3.writePktSize::4                   0                       # Write request sizes (log2)
system.mem_ctrls3.writePktSize::5                   0                       # Write request sizes (log2)
system.mem_ctrls3.writePktSize::6               60607                       # Write request sizes (log2)
system.mem_ctrls3.rdQLenPdf::0                  59240                       # What read queue length does an incoming req see
system.mem_ctrls3.rdQLenPdf::1                   9942                       # What read queue length does an incoming req see
system.mem_ctrls3.rdQLenPdf::2                   3269                       # What read queue length does an incoming req see
system.mem_ctrls3.rdQLenPdf::3                   1326                       # What read queue length does an incoming req see
system.mem_ctrls3.rdQLenPdf::4                    746                       # What read queue length does an incoming req see
system.mem_ctrls3.rdQLenPdf::5                    432                       # What read queue length does an incoming req see
system.mem_ctrls3.rdQLenPdf::6                    276                       # What read queue length does an incoming req see
system.mem_ctrls3.rdQLenPdf::7                    154                       # What read queue length does an incoming req see
system.mem_ctrls3.rdQLenPdf::8                     88                       # What read queue length does an incoming req see
system.mem_ctrls3.rdQLenPdf::9                     66                       # What read queue length does an incoming req see
system.mem_ctrls3.rdQLenPdf::10                    51                       # What read queue length does an incoming req see
system.mem_ctrls3.rdQLenPdf::11                    44                       # What read queue length does an incoming req see
system.mem_ctrls3.rdQLenPdf::12                    41                       # What read queue length does an incoming req see
system.mem_ctrls3.rdQLenPdf::13                    34                       # What read queue length does an incoming req see
system.mem_ctrls3.rdQLenPdf::14                    29                       # What read queue length does an incoming req see
system.mem_ctrls3.rdQLenPdf::15                    24                       # What read queue length does an incoming req see
system.mem_ctrls3.rdQLenPdf::16                    23                       # What read queue length does an incoming req see
system.mem_ctrls3.rdQLenPdf::17                    17                       # What read queue length does an incoming req see
system.mem_ctrls3.rdQLenPdf::18                    16                       # What read queue length does an incoming req see
system.mem_ctrls3.rdQLenPdf::19                    14                       # What read queue length does an incoming req see
system.mem_ctrls3.rdQLenPdf::20                    10                       # What read queue length does an incoming req see
system.mem_ctrls3.rdQLenPdf::21                     9                       # What read queue length does an incoming req see
system.mem_ctrls3.rdQLenPdf::22                     5                       # What read queue length does an incoming req see
system.mem_ctrls3.rdQLenPdf::23                     6                       # What read queue length does an incoming req see
system.mem_ctrls3.rdQLenPdf::24                     5                       # What read queue length does an incoming req see
[...]
system.ruby.L2Cache_Controller.MT_IIB.L1_PUTX::total            4                      
system.ruby.L2Cache_Controller.MT_IIB.WB_Data |        6713      3.22%      3.22% |        6565      3.15%      6.37% |        6524      3.13%      9.50% |        6445      3.09%     12.60% |        6746      3.24%     15.83% |        6465      3.10%     18.93% |        6378      3.06%     22.00% |        6422      3.08%     25.08% |        6566      3.15%     28.23% |        6429      3.09%     31.31% |        6523      3.13%     34.44% |        6419      3.08%     37.52% |        6684      3.21%     40.73% |        6460      3.10%     43.83% |        6497      3.12%     46.95% |        6532      3.13%     50.08% |        6683      3.21%     53.29% |        6466      3.10%     56.39% |        6463      3.10%     59.50% |        6403      3.07%     62.57% |        6597      3.17%     65.73% |        6450      3.10%     68.83% |        6549      3.14%     71.97% |        6448      3.09%     75.07% |        6530      3.13%     78.20% |        6486      3.11%     81.31% |        6428      3.08%     84.40% |        6468      3.10%     87.50% |        6712      3.22%     90.72% |        6398      3.07%     93.79% |        6568      3.15%     96.94% |        6370      3.06%    100.00%
system.ruby.L2Cache_Controller.MT_IIB.WB_Data::total       208387                      
system.ruby.L2Cache_Controller.MT_IIB.WB_Data_clean |         684      3.22%      3.22% |         672      3.16%      6.39% |         669      3.15%      9.54% |         679      3.20%     12.73% |         685      3.23%     15.96% |         671      3.16%     19.12% |         657      3.09%     22.22% |         653      3.08%     25.29% |         671      3.16%     28.45% |         656      3.09%     31.54% |         662      3.12%     34.66% |         655      3.08%     37.74% |         662      3.12%     40.86% |         660      3.11%     43.97% |         675      3.18%     47.15% |         667      3.14%     50.29% |         665      3.13%     53.42% |         655      3.08%     56.51% |         646      3.04%     59.55% |         647      3.05%     62.60% |         653      3.08%     65.67% |         652      3.07%     68.74% |         661      3.11%     71.86% |         659      3.10%     74.96% |         659      3.10%     78.06% |         672      3.16%     81.23% |         657      3.09%     84.32% |         656      3.09%     87.41% |         672      3.16%     90.58% |         655      3.08%     93.66% |         677      3.19%     96.85% |         669      3.15%    100.00%
system.ruby.L2Cache_Controller.MT_IIB.WB_Data_clean::total        21233                      
system.ruby.L2Cache_Controller.MT_IIB.Unblock |          61      0.96%      0.96% |          97      1.53%      2.49% |         177      2.79%      5.27% |         239      3.76%      9.04% |          99      1.56%     10.60% |         178      2.80%     13.40% |         263      4.14%     17.54% |         296      4.66%     22.20% |         270      4.25%     26.45% |         234      3.68%     30.14% |         161      2.54%     32.67% |         248      3.90%     36.58% |         141      2.22%     38.80% |         229      3.61%     42.40% |         143      2.25%     44.65% |         121      1.91%     46.56% |         186      2.93%     49.49% |         244      3.84%     53.33% |         249      3.92%     57.25% |         246      3.87%     61.12% |         238      3.75%     64.87% |         214      3.37%     68.24% |         168      2.65%     70.89% |         163      2.57%     73.45% |         246      3.87%     77.33% |         162      2.55%     79.88% |         236      3.72%     83.59% |         215      3.39%     86.98% |         125      1.97%     88.95% |         270      4.25%     93.20% |         136      2.14%     95.34% |         296      4.66%    100.00%
system.ruby.L2Cache_Controller.MT_IIB.Unblock::total         6351                      
system.ruby.L2Cache_Controller.MT_IB.L1_GETS |           0      0.00%      0.00% |           0      0.00%      0.00% |           0      0.00%      0.00% |           0      0.00%      0.00% |           0      0.00%      0.00% |           0      0.00%      0.00% |           0      0.00%      0.00% |           0      0.00%      0.00% |           0      0.00%      0.00% |           1     25.00%     25.00% |           0      0.00%     25.00% |           0      0.00%     25.00% |           0      0.00%     25.00% |           1     25.00%     50.00% |           0      0.00%     50.00% |           1     25.00%     75.00% |           0      0.00%     75.00% |           0      0.00%     75.00% |           0      0.00%     75.00% |           0      0.00%     75.00% |           0      0.00%     75.00% |           1     25.00%    100.00% |           0      0.00%    100.00% |           0      0.00%    100.00% |           0      0.00%    100.00% |           0      0.00%    100.00% |           0      0.00%    100.00% |           0      0.00%    100.00% |           0      0.00%    100.00% |           0      0.00%    100.00% |           0      0.00%    100.00% |           0      0.00%    100.00%
system.ruby.L2Cache_Controller.MT_IB.L1_GETS::total            4                      
system.ruby.L2Cache_Controller.MT_IB.L1_UPGRADE |           1      7.69%      7.69% |           1      7.69%     15.38% |           0      0.00%     15.38% |           0      0.00%     15.38% |           0      0.00%     15.38% |           0      0.00%     15.38% |           0      0.00%     15.38% |           0      0.00%     15.38% |           1      7.69%     23.08% |           0      0.00%     23.08% |           2     15.38%     38.46% |           0      0.00%     38.46% |           0      0.00%     38.46% |           1      7.69%     46.15% |           0      0.00%     46.15% |           0      0.00%     46.15% |           0      0.00%     46.15% |           1      7.69%     53.85% |           0      0.00%     53.85% |           1      7.69%     61.54% |           0      0.00%     61.54% |           0      0.00%     61.54% |           0      0.00%     61.54% |           0      0.00%     61.54% |           1      7.69%     69.23% |           0      0.00%     69.23% |           1      7.69%     76.92% |           1      7.69%     84.62% |           0      0.00%     84.62% |           1      7.69%     92.31% |           0      0.00%     92.31% |           1      7.69%    100.00%
system.ruby.L2Cache_Controller.MT_IB.L1_UPGRADE::total           13                      
system.ruby.L2Cache_Controller.MT_IB.WB_Data |          59      1.00%      1.00% |          91      1.54%      2.54% |         166      2.81%      5.34% |         226      3.82%      9.16% |          98      1.66%     10.82% |         163      2.76%     13.58% |         250      4.23%     17.80% |         274      4.63%     22.43% |         251      4.24%     26.68% |         218      3.69%     30.36% |         148      2.50%     32.87% |         228      3.85%     36.72% |         124      2.10%     38.82% |         211      3.57%     42.38% |         132      2.23%     44.62% |         115      1.94%     46.56% |         170      2.87%     49.43% |         222      3.75%     53.19% |         226      3.82%     57.01% |         231      3.91%     60.91% |         220      3.72%     64.63% |         203      3.43%     68.06% |         156      2.64%     70.70% |         154      2.60%     73.31% |         234      3.96%     77.26% |         148      2.50%     79.76% |         222      3.75%     83.52% |         201      3.40%     86.91% |         115      1.94%     88.86% |         252      4.26%     93.12% |         128      2.16%     95.28% |         279      4.72%    100.00%
system.ruby.L2Cache_Controller.MT_IB.WB_Data::total         5915                      
system.ruby.L2Cache_Controller.MT_IB.WB_Data_clean |           2      0.46%      0.46% |           6      1.38%      1.83% |          11      2.52%      4.36% |          13      2.98%      7.34% |           1      0.23%      7.57% |          15      3.44%     11.01% |          13      2.98%     13.99% |          22      5.05%     19.04% |          19      4.36%     23.39% |          16      3.67%     27.06% |          13      2.98%     30.05% |          20      4.59%     34.63% |          17      3.90%     38.53% |          18      4.13%     42.66% |          11      2.52%     45.18% |           6      1.38%     46.56% |          16      3.67%     50.23% |          22      5.05%     55.28% |          23      5.28%     60.55% |          15      3.44%     63.99% |          18      4.13%     68.12% |          11      2.52%     70.64% |          12      2.75%     73.39% |           9      2.06%     75.46% |          12      2.75%     78.21% |          14      3.21%     81.42% |          14      3.21%     84.63% |          14      3.21%     87.84% |          10      2.29%     90.14% |          18      4.13%     94.27% |           8      1.83%     96.10% |          17      3.90%    100.00%
system.ruby.L2Cache_Controller.MT_IB.WB_Data_clean::total          436                      
system.ruby.L2Cache_Controller.MT_SB.L1_GETS |          41      4.25%      4.25% |          36      3.73%      7.98% |          22      2.28%     10.26% |          39      4.04%     14.30% |          32      3.32%     17.62% |          25      2.59%     20.21% |          34      3.52%     23.73% |          26      2.69%     26.42% |          35      3.63%     30.05% |          36      3.73%     33.78% |          27      2.80%     36.58% |          28      2.90%     39.48% |          26      2.69%     42.18% |          30      3.11%     45.28% |          35      3.63%     48.91% |          31      3.21%     52.12% |          23      2.38%     54.51% |          25      2.59%     57.10% |          23      2.38%     59.48% |          29      3.01%     62.49% |          25      2.59%     65.08% |          32      3.32%     68.39% |          29      3.01%     71.40% |          32      3.32%     74.72% |          27      2.80%     77.51% |          28      2.90%     80.41% |          35      3.63%     84.04% |          28      2.90%     86.94% |          32      3.32%     90.26% |          25      2.59%     92.85% |          29      3.01%     95.85% |          40      4.15%    100.00%
system.ruby.L2Cache_Controller.MT_SB.L1_GETS::total          965                      
system.ruby.L2Cache_Controller.MT_SB.L1_GETX |          19      4.38%      4.38% |           8      1.84%      6.22% |          16      3.69%      9.91% |          16      3.69%     13.59% |          11      2.53%     16.13% |          16      3.69%     19.82% |          20      4.61%     24.42% |          10      2.30%     26.73% |          15      3.46%     30.18% |          12      2.76%     32.95% |          12      2.76%     35.71% |          20      4.61%     40.32% |          15      3.46%     43.78% |           8      1.84%     45.62% |          12      2.76%     48.39% |           8      1.84%     50.23% |          14      3.23%     53.46% |          12      2.76%     56.22% |          20      4.61%     60.83% |          19      4.38%     65.21% |           8      1.84%     67.05% |           9      2.07%     69.12% |           8      1.84%     70.97% |          13      3.00%     73.96% |          17      3.92%     77.88% |          16      3.69%     81.57% |          15      3.46%     85.02% |          21      4.84%     89.86% |          12      2.76%     92.63% |          14      3.23%     95.85% |           8      1.84%     97.70% |          10      2.30%    100.00%
system.ruby.L2Cache_Controller.MT_SB.L1_GETX::total          434                      
system.ruby.L2Cache_Controller.MT_SB.L1_UPGRADE |           9      3.49%      3.49% |           6      2.33%      5.81% |           7      2.71%      8.53% |           7      2.71%     11.24% |           4      1.55%     12.79% |          11      4.26%     17.05% |           9      3.49%     20.54% |           5      1.94%     22.48% |           9      3.49%     25.97% |           9      3.49%     29.46% |           9      3.49%     32.95% |          15      5.81%     38.76% |          14      5.43%     44.19% |           4      1.55%     45.74% |           6      2.33%     48.06% |           6      2.33%     50.39% |           6      2.33%     52.71% |           9      3.49%     56.20% |          11      4.26%     60.47% |           9      3.49%     63.95% |           7      2.71%     66.67% |          12      4.65%     71.32% |           6      2.33%     73.64% |           9      3.49%     77.13% |           8      3.10%     80.23% |           5      1.94%     82.17% |           5      1.94%     84.11% |           9      3.49%     87.60% |          10      3.88%     91.47% |          11      4.26%     95.74% |           5      1.94%     97.67% |           6      2.33%    100.00%
system.ruby.L2Cache_Controller.MT_SB.L1_UPGRADE::total          258                      
system.ruby.L2Cache_Controller.MT_SB.Unblock |        7397      3.22%      3.22% |        7237      3.15%      6.37% |        7193      3.13%      9.51% |        7124      3.10%     12.61% |        7431      3.24%     15.84% |        7136      3.11%     18.95% |        7035      3.06%     22.02% |        7075      3.08%     25.10% |        7237      3.15%     28.25% |        7085      3.09%     31.33% |        7185      3.13%     34.46% |        7074      3.08%     37.54% |        7346      3.20%     40.74% |        7120      3.10%     43.84% |        7172      3.12%     46.97% |        7199      3.14%     50.10% |        7348      3.20%     53.30% |        7121      3.10%     56.40% |        7109      3.10%     59.50% |        7050      3.07%     62.57% |        7250      3.16%     65.73% |        7102      3.09%     68.82% |        7210      3.14%     71.96% |        7107      3.10%     75.06% |        7189      3.13%     78.19% |        7158      3.12%     81.30% |        7085      3.09%     84.39% |        7124      3.10%     87.49% |        7384      3.22%     90.71% |        7053      3.07%     93.78% |        7245      3.16%     96.93% |        7039      3.07%    100.00%
system.ruby.L2Cache_Controller.MT_SB.Unblock::total       229620                      
system.ruby.SimicsNetworkPortInterface_Controller.MessageSend |      309508     17.93%     17.93% |      862881     50.00%     67.93% |       69339      4.02%     71.95% |       74675      4.33%     76.28% |       69314      4.02%     80.30% |       72961      4.23%     84.52% |       69436      4.02%     88.55% |       75165      4.36%     92.90% |       58469      3.39%     96.29% |       64014      3.71%    100.00% |           0      0.00%    100.00% |           0      0.00%    100.00% |           0      0.00%    100.00% |           0      0.00%    100.00% |           0      0.00%    100.00% |           0      0.00%    100.00% |           0      0.00%    100.00% |           0      0.00%    100.00% |           0      0.00%    100.00% |           0      0.00%    100.00% |           0      0.00%    100.00% |           0      0.00%    100.00% |           0      0.00%    100.00% |           0      0.00%    100.00% |           0      0.00%    100.00% |           0      0.00%    100.00% |           0      0.00%    100.00% |           0      0.00%    100.00% |           0      0.00%    100.00% |           0      0.00%    100.00% |           0      0.00%    100.00% |           0      0.00%    100.00%
system.ruby.SimicsNetworkPortInterface_Controller.MessageSend::total      1725762                      
system.ruby.SimicsNetworkPortInterface_Controller.MessageRecv |      309508     17.93%     17.93% |      862881     50.00%     67.93% |       69339      4.02%     71.95% |       74675      4.33%     76.28% |       69314      4.02%     80.30% |       72961      4.23%     84.52% |       69436      4.02%     88.55% |       75165      4.36%     92.90% |       58469      3.39%     96.29% |       64014      3.71%    100.00% |           0      0.00%    100.00% |           0      0.00%    100.00% |           0      0.00%    100.00% |           0      0.00%    100.00% |           0      0.00%    100.00% |           0      0.00%    100.00% |           0      0.00%    100.00% |           0      0.00%    100.00% |           0      0.00%    100.00% |           0      0.00%    100.00% |           0      0.00%    100.00% |           0      0.00%    100.00% |           0      0.00%    100.00% |           0      0.00%    100.00% |           0      0.00%    100.00% |           0      0.00%    100.00% |           0      0.00%    100.00% |           0      0.00%    100.00% |           0      0.00%    100.00% |           0      0.00%    100.00% |           0      0.00%    100.00% |           0      0.00%    100.00%
system.ruby.SimicsNetworkPortInterface_Controller.MessageRecv::total      1725762                      
system.ruby.SimicsNetworkPortInterface_Controller.A.MessageSend |      309508     17.93%     17.93% |      862881     50.00%     67.93% |       69339      4.02%     71.95% |       74675      4.33%     76.28% |       69314      4.02%     80.30% |       72961      4.23%     84.52% |       69436      4.02%     88.55% |       75165      4.36%     92.90% |       58469      3.39%     96.29% |       64014      3.71%    100.00% |           0      0.00%    100.00% |           0      0.00%    100.00% |           0      0.00%    100.00% |           0      0.00%    100.00% |           0      0.00%    100.00% |           0      0.00%    100.00% |           0      0.00%    100.00% |           0      0.00%    100.00% |           0      0.00%    100.00% |           0      0.00%    100.00% |           0      0.00%    100.00% |           0      0.00%    100.00% |           0      0.00%    100.00% |           0      0.00%    100.00% |           0      0.00%    100.00% |           0      0.00%    100.00% |           0      0.00%    100.00% |           0      0.00%    100.00% |           0      0.00%    100.00% |           0      0.00%    100.00% |           0      0.00%    100.00% |           0      0.00%    100.00%
system.ruby.SimicsNetworkPortInterface_Controller.A.MessageSend::total      1725762                      
system.ruby.SimicsNetworkPortInterface_Controller.A.MessageRecv |      309508     17.93%     17.93% |      862881     50.00%     67.93% |       69339      4.02%     71.95% |       74675      4.33%     76.28% |       69314      4.02%     80.30% |       72961      4.23%     84.52% |       69436      4.02%     88.55% |       75165      4.36%     92.90% |       58469      3.39%     96.29% |       64014      3.71%    100.00% |           0      0.00%    100.00% |           0      0.00%    100.00% |           0      0.00%    100.00% |           0      0.00%    100.00% |           0      0.00%    100.00% |           0      0.00%    100.00% |           0      0.00%    100.00% |           0      0.00%    100.00% |           0      0.00%    100.00% |           0      0.00%    100.00% |           0      0.00%    100.00% |           0      0.00%    100.00% |           0      0.00%    100.00% |           0      0.00%    100.00% |           0      0.00%    100.00% |           0      0.00%    100.00% |           0      0.00%    100.00% |           0      0.00%    100.00% |           0      0.00%    100.00% |           0      0.00%    100.00% |           0      0.00%    100.00% |           0      0.00%    100.00%
system.ruby.SimicsNetworkPortInterface_Controller.A.MessageRecv::total      1725762                      
system.switch_cpus.kern.inst.arm                    0                       # number of arm instructions executed
system.switch_cpus.kern.inst.quiesce                0                       # number of quiesce instructions executed

---------- End Simulation Statistics   ----------
