
---------- Begin Simulation Statistics ----------
sim_seconds                                  0.130684                       # Number of seconds simulated
sim_ticks                                130684386000                       # Number of ticks simulated
final_tick                               5306852464500                       # Number of ticks from beginning of simulation (restored from checkpoints and never reset)
sim_freq                                 1000000000000                       # Frequency of simulated ticks
host_inst_rate                                  34272                       # Simulator instruction rate (inst/s)
host_op_rate                                    59171                       # Simulator op (including micro ops) rate (op/s)
host_tick_rate                              104890253                       # Simulator tick rate (ticks/s)
host_mem_usage                                3714532                       # Number of bytes of host memory used
host_seconds                                  1245.92                       # Real time elapsed on the host
sim_insts                                    42700516                       # Number of instructions simulated
sim_ops                                      73721498                       # Number of ops (including micro ops) simulated
system.voltage_domain.voltage                       1                       # Voltage in Volts
system.clk_domain.clock                           500                       # Clock period in ticks
system.mem_ctrls0.bytes_read::ruby.dir_cntrl0     21452992                       # Number of bytes read from this memory
system.mem_ctrls0.bytes_read::total          21452992                       # Number of bytes read from this memory
system.mem_ctrls0.bytes_written::ruby.dir_cntrl0     13543552                       # Number of bytes written to this memory
system.mem_ctrls0.bytes_written::total       13543552                       # Number of bytes written to this memory
system.mem_ctrls0.num_reads::ruby.dir_cntrl0       335203                       # Number of read requests responded to by this memory
system.mem_ctrls0.num_reads::total             335203                       # Number of read requests responded to by this memory
system.mem_ctrls0.num_writes::ruby.dir_cntrl0       211618                       # Number of write requests responded to by this memory
system.mem_ctrls0.num_writes::total            211618                       # Number of write requests responded to by this memory
system.mem_ctrls0.bw_read::ruby.dir_cntrl0    164158800                       # Total read bandwidth from this memory (bytes/s)
system.mem_ctrls0.bw_read::total            164158800                       # Total read bandwidth from this memory (bytes/s)
system.mem_ctrls0.bw_write::ruby.dir_cntrl0    103635579                       # Write bandwidth from this memory (bytes/s)
system.mem_ctrls0.bw_write::total           103635579                       # Write bandwidth from this memory (bytes/s)
system.mem_ctrls0.bw_total::ruby.dir_cntrl0    267794379                       # Total bandwidth to/from this memory (bytes/s)
system.mem_ctrls0.bw_total::total           267794379                       # Total bandwidth to/from this memory (bytes/s)
system.mem_ctrls0.readReqs                     335203                       # Number of read requests accepted
system.mem_ctrls0.writeReqs                    211618                       # Number of write requests accepted
system.mem_ctrls0.readBursts                   335203                       # Number of DRAM read bursts, including those serviced by the write queue
system.mem_ctrls0.writeBursts                  211618                       # Number of DRAM write bursts, including those merged in the write queue
system.mem_ctrls0.bytesReadDRAM              21451776                       # Total number of bytes read from DRAM
system.mem_ctrls0.bytesReadWrQ                   1216                       # Total number of bytes read from write queue
system.mem_ctrls0.bytesWritten               13543360                       # Total number of bytes written to DRAM
system.mem_ctrls0.bytesReadSys               21452992                       # Total read bytes from the system interface side
system.mem_ctrls0.bytesWrittenSys            13543552                       # Total written bytes from the system interface side
system.mem_ctrls0.servicedByWrQ                    19                       # Number of DRAM read bursts serviced by the write queue
system.mem_ctrls0.mergedWrBursts                    0                       # Number of DRAM write bursts merged with an existing one
system.mem_ctrls0.neitherReadNorWriteReqs            0                       # Number of requests that are neither read nor write
system.mem_ctrls0.perBankRdBursts::0            20688                       # Per bank write bursts
system.mem_ctrls0.perBankRdBursts::1            21308                       # Per bank write bursts
system.mem_ctrls0.perBankRdBursts::2            20891                       # Per bank write bursts
system.mem_ctrls0.perBankRdBursts::3            21353                       # Per bank write bursts
system.mem_ctrls0.perBankRdBursts::4            20951                       # Per bank write bursts
system.mem_ctrls0.perBankRdBursts::5            21175                       # Per bank write bursts
system.mem_ctrls0.perBankRdBursts::6            21086                       # Per bank write bursts
system.mem_ctrls0.perBankRdBursts::7            21064                       # Per bank write bursts
system.mem_ctrls0.perBankRdBursts::8            20841                       # Per bank write bursts
system.mem_ctrls0.perBankRdBursts::9            21038                       # Per bank write bursts
system.mem_ctrls0.perBankRdBursts::10           20808                       # Per bank write bursts
system.mem_ctrls0.perBankRdBursts::11           21193                       # Per bank write bursts
system.mem_ctrls0.perBankRdBursts::12           20655                       # Per bank write bursts
system.mem_ctrls0.perBankRdBursts::13           20572                       # Per bank write bursts
system.mem_ctrls0.perBankRdBursts::14           20791                       # Per bank write bursts
system.mem_ctrls0.perBankRdBursts::15           20770                       # Per bank write bursts
system.mem_ctrls0.perBankWrBursts::0            13273                       # Per bank write bursts
system.mem_ctrls0.perBankWrBursts::1            13218                       # Per bank write bursts
system.mem_ctrls0.perBankWrBursts::2            13143                       # Per bank write bursts
system.mem_ctrls0.perBankWrBursts::3            13394                       # Per bank write bursts
system.mem_ctrls0.perBankWrBursts::4            13219                       # Per bank write bursts
system.mem_ctrls0.perBankWrBursts::5            13318                       # Per bank write bursts
system.mem_ctrls0.perBankWrBursts::6            13251                       # Per bank write bursts
system.mem_ctrls0.perBankWrBursts::7            13418                       # Per bank write bursts
system.mem_ctrls0.perBankWrBursts::8            13142                       # Per bank write bursts
system.mem_ctrls0.perBankWrBursts::9            13360                       # Per bank write bursts
system.mem_ctrls0.perBankWrBursts::10           13146                       # Per bank write bursts
system.mem_ctrls0.perBankWrBursts::11           13079                       # Per bank write bursts
system.mem_ctrls0.perBankWrBursts::12           13063                       # Per bank write bursts
system.mem_ctrls0.perBankWrBursts::13           13072                       # Per bank write bursts
system.mem_ctrls0.perBankWrBursts::14           13361                       # Per bank write bursts
system.mem_ctrls0.perBankWrBursts::15           13158                       # Per bank write bursts
system.mem_ctrls0.numRdRetry                   102108                       # Number of times read queue was full causing retry
system.mem_ctrls0.numWrRetry                     2942                       # Number of times write queue was full causing retry
system.mem_ctrls0.totGap                 130684044000                       # Total gap between requests
system.mem_ctrls0.readPktSize::0                    0                       # Read request sizes (log2)
system.mem_ctrls0.readPktSize::1                    0                       # Read request sizes (log2)
system.mem_ctrls0.readPktSize::2                    0                       # Read request sizes (log2)
system.mem_ctrls0.readPktSize::3                    0                       # Read request sizes (log2)
system.mem_ctrls0.readPktSize::4                    0                       # Read request sizes (log2)
system.mem_ctrls0.readPktSize::5                    0                       # Read request sizes (log2)
system.mem_ctrls0.readPktSize::6               335203                       # Read request sizes (log2)
system.mem_ctrls0.writePktSize::0                   0                       # Write request sizes (log2)
system.mem_ctrls0.writePktSize::1                   0                       # Write request sizes (log2)
system.mem_ctrls0.writePktSize::2                   0                       # Write request sizes (log2)
system.mem_ctrls0.writePktSize::3                   0                       # Write request sizes (log2)
system.mem_ctrls0.writePktSize::4                   0                       # Write request sizes (log2)
system.mem_ctrls0.writePktSize::5                   0                       # Write request sizes (log2)
system.mem_ctrls0.writePktSize::6              211618                       # Write request sizes (log2)
system.mem_ctrls0.rdQLenPdf::0                 175661                       # What read queue length does an incoming req see
system.mem_ctrls0.rdQLenPdf::1                   5014                       # What read queue length does an incoming req see
system.mem_ctrls0.rdQLenPdf::2                   2258                       # What read queue length does an incoming req see
system.mem_ctrls0.rdQLenPdf::3                    829                       # What read queue length does an incoming req see
system.mem_ctrls0.rdQLenPdf::4                    906                       # What read queue length does an incoming req see
system.mem_ctrls0.rdQLenPdf::5                   1010                       # What read queue length does an incoming req see
system.mem_ctrls0.rdQLenPdf::6                   1088                       # What read queue length does an incoming req see
system.mem_ctrls0.rdQLenPdf::7                   1116                       # What read queue length does an incoming req see
system.mem_ctrls0.rdQLenPdf::8                   1155                       # What read queue length does an incoming req see
system.mem_ctrls0.rdQLenPdf::9                   1286                       # What read queue length does an incoming req see
system.mem_ctrls0.rdQLenPdf::10                  1434                       # What read queue length does an incoming req see
system.mem_ctrls0.rdQLenPdf::11                  1403                       # What read queue length does an incoming req see
system.mem_ctrls0.rdQLenPdf::12                  1452                       # What read queue length does an incoming req see
system.mem_ctrls0.rdQLenPdf::13                  1477                       # What read queue length does an incoming req see
system.mem_ctrls0.rdQLenPdf::14                  1542                       # What read queue length does an incoming req see
system.mem_ctrls0.rdQLenPdf::15                  1615                       # What read queue length does an incoming req see
system.mem_ctrls0.rdQLenPdf::16                  1646                       # What read queue length does an incoming req see
system.mem_ctrls0.rdQLenPdf::17                  1832                       # What read queue length does an incoming req see
system.mem_ctrls0.rdQLenPdf::18                  1805                       # What read queue length does an incoming req see
system.mem_ctrls0.rdQLenPdf::19                  1768                       # What read queue length does an incoming req see
system.mem_ctrls0.rdQLenPdf::20                  1872                       # What read queue length does an incoming req see
system.mem_ctrls0.rdQLenPdf::21                  1837                       # What read queue length does an incoming req see
system.mem_ctrls0.rdQLenPdf::22                  1960                       # What read queue length does an incoming req see
system.mem_ctrls0.rdQLenPdf::23                  2030                       # What read queue length does an incoming req see
system.mem_ctrls0.rdQLenPdf::24                  2111                       # What read queue length does an incoming req see
system.mem_ctrls0.rdQLenPdf::25                  2124                       # What read queue length does an incoming req see
system.mem_ctrls0.rdQLenPdf::26                  2168                       # What read queue length does an incoming req see
system.mem_ctrls0.rdQLenPdf::27                  2227                       # What read queue length does an incoming req see
system.mem_ctrls0.rdQLenPdf::28                  2344                       # What read queue length does an incoming req see
system.mem_ctrls0.rdQLenPdf::29                  2392                       # What read queue length does an incoming req see
system.mem_ctrls0.rdQLenPdf::30                  2562                       # What read queue length does an incoming req see
system.mem_ctrls0.rdQLenPdf::31                105260                       # What read queue length does an incoming req see
system.mem_ctrls0.wrQLenPdf::0                  37585                       # What write queue length does an incoming req see
system.mem_ctrls0.wrQLenPdf::1                  38504                       # What write queue length does an incoming req see
system.mem_ctrls0.wrQLenPdf::2                  39023                       # What write queue length does an incoming req see
system.mem_ctrls0.wrQLenPdf::3                  39286                       # What write queue length does an incoming req see
system.mem_ctrls0.wrQLenPdf::4                  39144                       # What write queue length does an incoming req see
system.mem_ctrls0.wrQLenPdf::5                   5440                       # What write queue length does an incoming req see
system.mem_ctrls0.wrQLenPdf::6                   6079                       # What write queue length does an incoming req see
system.mem_ctrls0.wrQLenPdf::7                   6557                       # What write queue length does an incoming req see
system.mem_ctrls0.bytesPerActivate::samples       154338                       # Bytes accessed per row activation
system.mem_ctrls0.bytesPerActivate::mean   226.737680                       # Bytes accessed per row activation
system.mem_ctrls0.bytesPerActivate::gmean   167.332758                       # Bytes accessed per row activation
system.mem_ctrls0.bytesPerActivate::stdev   184.308861                       # Bytes accessed per row activation
system.mem_ctrls0.bytesPerActivate::0-127        52349     33.92%     33.92% # Bytes accessed per row activation
system.mem_ctrls0.bytesPerActivate::128-255        31106     20.15%     54.07% # Bytes accessed per row activation
system.mem_ctrls0.bytesPerActivate::256-383        53622     34.74%     88.82% # Bytes accessed per row activation
system.mem_ctrls0.bytesPerActivate::384-511         6304      4.08%     92.90% # Bytes accessed per row activation
system.mem_ctrls0.bytesPerActivate::512-639         4202      2.72%     95.62% # Bytes accessed per row activation
system.mem_ctrls0.bytesPerActivate::640-767         2364      1.53%     97.15% # Bytes accessed per row activation
system.mem_ctrls0.bytesPerActivate::768-895         1404      0.91%     98.06% # Bytes accessed per row activation
system.mem_ctrls0.bytesPerActivate::896-1023          971      0.63%     98.69% # Bytes accessed per row activation
system.mem_ctrls0.bytesPerActivate::1024-1151         2016      1.31%    100.00% # Bytes accessed per row activation
system.mem_ctrls0.bytesPerActivate::total       154338                       # Bytes accessed per row activation
system.mem_ctrls0.rdPerTurnAround::samples        37837                       # Reads before turning the bus around for writes
system.mem_ctrls0.rdPerTurnAround::mean      8.858208                       # Reads before turning the bus around for writes
system.mem_ctrls0.rdPerTurnAround::stdev    24.023951                       # Reads before turning the bus around for writes
system.mem_ctrls0.rdPerTurnAround::0-127        37810     99.93%     99.93% # Reads before turning the bus around for writes
system.mem_ctrls0.rdPerTurnAround::128-255           26      0.07%    100.00% # Reads before turning the bus around for writes
system.mem_ctrls0.rdPerTurnAround::3968-4095            1      0.00%    100.00% # Reads before turning the bus around for writes
system.mem_ctrls0.rdPerTurnAround::total        37837                       # Reads before turning the bus around for writes
system.mem_ctrls0.wrPerTurnAround::samples        37837                       # Writes before turning the bus around for reads
system.mem_ctrls0.wrPerTurnAround::mean      5.592806                       # Writes before turning the bus around for reads
system.mem_ctrls0.wrPerTurnAround::gmean     5.406739                       # Writes before turning the bus around for reads
system.mem_ctrls0.wrPerTurnAround::stdev     1.878663                       # Writes before turning the bus around for reads
system.mem_ctrls0.wrPerTurnAround::4-7          34398     90.91%     90.91% # Writes before turning the bus around for reads
system.mem_ctrls0.wrPerTurnAround::8-11          2335      6.17%     97.08% # Writes before turning the bus around for reads
system.mem_ctrls0.wrPerTurnAround::12-15          678      1.79%     98.87% # Writes before turning the bus around for reads
system.mem_ctrls0.wrPerTurnAround::16-19          426      1.13%    100.00% # Writes before turning the bus around for reads
system.mem_ctrls0.wrPerTurnAround::total        37837                       # Writes before turning the bus around for reads
system.mem_ctrls0.totQLat                 34356390665                       # Total ticks spent queuing
system.mem_ctrls0.totMemAccLat            40641090665                       # Total ticks spent from burst creation until serviced by the DRAM
system.mem_ctrls0.totBusLat                1675920000                       # Total ticks spent in databus transfers
system.mem_ctrls0.avgQLat                   102500.09                       # Average queueing delay per DRAM burst
system.mem_ctrls0.avgBusLat                   5000.00                       # Average bus latency per DRAM burst
system.mem_ctrls0.avgMemAccLat              121250.09                       # Average memory access latency per DRAM burst
system.mem_ctrls0.avgRdBW                      164.15                       # Average DRAM read bandwidth in MiByte/s
system.mem_ctrls0.avgWrBW                      103.63                       # Average achieved write bandwidth in MiByte/s
system.mem_ctrls0.avgRdBWSys                   164.16                       # Average system read bandwidth in MiByte/s
system.mem_ctrls0.avgWrBWSys                   103.64                       # Average system write bandwidth in MiByte/s
system.mem_ctrls0.peakBW                     12800.00                       # Theoretical peak bandwidth in MiByte/s
system.mem_ctrls0.busUtil                        2.09                       # Data bus utilization in percentage
system.mem_ctrls0.busUtilRead                    1.28                       # Data bus utilization in percentage for reads
system.mem_ctrls0.busUtilWrite                   0.81                       # Data bus utilization in percentage for writes
system.mem_ctrls0.avgRdQLen                      1.27                       # Average read queue length when enqueuing
system.mem_ctrls0.avgWrQLen                      2.96                       # Average write queue length when enqueuing
system.mem_ctrls0.readRowHits                  253625                       # Number of row buffer hits during reads
system.mem_ctrls0.writeRowHits                 138825                       # Number of row buffer hits during writes
system.mem_ctrls0.readRowHitRate                75.67                       # Row buffer hit rate for reads
system.mem_ctrls0.writeRowHitRate               65.60                       # Row buffer hit rate for writes
system.mem_ctrls0.avgGap                    238988.71                       # Average gap between requests
system.mem_ctrls0.pageHitRate                   71.77                       # Row buffer hit rate, read and write combined
system.mem_ctrls0.memoryStateTime::IDLE   28043155000                       # Time in different power states
system.mem_ctrls0.memoryStateTime::REF     4363580000                       # Time in different power states
system.mem_ctrls0.memoryStateTime::PRE_PDN            0                       # Time in different power states
system.mem_ctrls0.memoryStateTime::ACT    98271941000                       # Time in different power states
system.mem_ctrls0.memoryStateTime::ACT_PDN            0                       # Time in different power states
system.mem_ctrls0.actEnergy::0              589816080                       # Energy for activate commands per rank (pJ)
system.mem_ctrls0.actEnergy::1              576888480                       # Energy for activate commands per rank (pJ)
system.mem_ctrls0.preEnergy::0              321824250                       # Energy for precharge commands per rank (pJ)
system.mem_ctrls0.preEnergy::1              314770500                       # Energy for precharge commands per rank (pJ)
system.mem_ctrls0.readEnergy::0            1314073800                       # Energy for read commands per rank (pJ)
system.mem_ctrls0.readEnergy::1            1299932400                       # Energy for read commands per rank (pJ)
system.mem_ctrls0.writeEnergy::0            688370400                       # Energy for write commands per rank (pJ)
system.mem_ctrls0.writeEnergy::1            682765200                       # Energy for write commands per rank (pJ)
system.mem_ctrls0.refreshEnergy::0         8535162480                       # Energy for refresh commands per rank (pJ)
system.mem_ctrls0.refreshEnergy::1         8535162480                       # Energy for refresh commands per rank (pJ)
system.mem_ctrls0.actBackEnergy::0        49688371170                       # Energy for active background per rank (pJ)
system.mem_ctrls0.actBackEnergy::1        49254629670                       # Energy for active background per rank (pJ)
system.mem_ctrls0.preBackEnergy::0        34819849500                       # Energy for precharge background per rank (pJ)
system.mem_ctrls0.preBackEnergy::1        35200324500                       # Energy for precharge background per rank (pJ)
system.mem_ctrls0.totalEnergy::0          95957467680                       # Total energy per rank (pJ)
system.mem_ctrls0.totalEnergy::1          95864473230                       # Total energy per rank (pJ)
system.mem_ctrls0.averagePower::0          734.310867                       # Core power per rank (mW)
system.mem_ctrls0.averagePower::1          733.599230                       # Core power per rank (mW)
system.mem_ctrls1.bytes_read::ruby.dir_cntrl1     20798016                       # Number of bytes read from this memory
system.mem_ctrls1.bytes_read::total          20798016                       # Number of bytes read from this memory
system.mem_ctrls1.bytes_written::ruby.dir_cntrl1     12916160                       # Number of bytes written to this memory
system.mem_ctrls1.bytes_written::total       12916160                       # Number of bytes written to this memory
system.mem_ctrls1.num_reads::ruby.dir_cntrl1       324969                       # Number of read requests responded to by this memory
system.mem_ctrls1.num_reads::total             324969                       # Number of read requests responded to by this memory
system.mem_ctrls1.num_writes::ruby.dir_cntrl1       201815                       # Number of write requests responded to by this memory
system.mem_ctrls1.num_writes::total            201815                       # Number of write requests responded to by this memory
system.mem_ctrls1.bw_read::ruby.dir_cntrl1    159146908                       # Total read bandwidth from this memory (bytes/s)
system.mem_ctrls1.bw_read::total            159146908                       # Total read bandwidth from this memory (bytes/s)
system.mem_ctrls1.bw_write::ruby.dir_cntrl1     98834761                       # Write bandwidth from this memory (bytes/s)
system.mem_ctrls1.bw_write::total            98834761                       # Write bandwidth from this memory (bytes/s)
system.mem_ctrls1.bw_total::ruby.dir_cntrl1    257981669                       # Total bandwidth to/from this memory (bytes/s)
system.mem_ctrls1.bw_total::total           257981669                       # Total bandwidth to/from this memory (bytes/s)
system.mem_ctrls1.readReqs                     324969                       # Number of read requests accepted
system.mem_ctrls1.writeReqs                    201815                       # Number of write requests accepted
system.mem_ctrls1.readBursts                   324969                       # Number of DRAM read bursts, including those serviced by the write queue
system.mem_ctrls1.writeBursts                  201815                       # Number of DRAM write bursts, including those merged in the write queue
system.mem_ctrls1.bytesReadDRAM              20796672                       # Total number of bytes read from DRAM
system.mem_ctrls1.bytesReadWrQ                   1344                       # Total number of bytes read from write queue
system.mem_ctrls1.bytesWritten               12915968                       # Total number of bytes written to DRAM
system.mem_ctrls1.bytesReadSys               20798016                       # Total read bytes from the system interface side
system.mem_ctrls1.bytesWrittenSys            12916160                       # Total written bytes from the system interface side
system.mem_ctrls1.servicedByWrQ                    21                       # Number of DRAM read bursts serviced by the write queue
system.mem_ctrls1.mergedWrBursts                    0                       # Number of DRAM write bursts merged with an existing one
system.mem_ctrls1.neitherReadNorWriteReqs            0                       # Number of requests that are neither read nor write
system.mem_ctrls1.perBankRdBursts::0            20059                       # Per bank write bursts
system.mem_ctrls1.perBankRdBursts::1            20698                       # Per bank write bursts
system.mem_ctrls1.perBankRdBursts::2            20233                       # Per bank write bursts
system.mem_ctrls1.perBankRdBursts::3            20682                       # Per bank write bursts
system.mem_ctrls1.perBankRdBursts::4            20375                       # Per bank write bursts
system.mem_ctrls1.perBankRdBursts::5            20538                       # Per bank write bursts
system.mem_ctrls1.perBankRdBursts::6            20434                       # Per bank write bursts
system.mem_ctrls1.perBankRdBursts::7            20516                       # Per bank write bursts
system.mem_ctrls1.perBankRdBursts::8            20185                       # Per bank write bursts
system.mem_ctrls1.perBankRdBursts::9            20382                       # Per bank write bursts
system.mem_ctrls1.perBankRdBursts::10           20149                       # Per bank write bursts
system.mem_ctrls1.perBankRdBursts::11           20570                       # Per bank write bursts
system.mem_ctrls1.perBankRdBursts::12           20016                       # Per bank write bursts
system.mem_ctrls1.perBankRdBursts::13           19893                       # Per bank write bursts
system.mem_ctrls1.perBankRdBursts::14           20085                       # Per bank write bursts
system.mem_ctrls1.perBankRdBursts::15           20133                       # Per bank write bursts
system.mem_ctrls1.perBankWrBursts::0            12661                       # Per bank write bursts
system.mem_ctrls1.perBankWrBursts::1            12624                       # Per bank write bursts
system.mem_ctrls1.perBankWrBursts::2            12534                       # Per bank write bursts
system.mem_ctrls1.perBankWrBursts::3            12787                       # Per bank write bursts
system.mem_ctrls1.perBankWrBursts::4            12622                       # Per bank write bursts
system.mem_ctrls1.perBankWrBursts::5            12718                       # Per bank write bursts
system.mem_ctrls1.perBankWrBursts::6            12630                       # Per bank write bursts
system.mem_ctrls1.perBankWrBursts::7            12795                       # Per bank write bursts
system.mem_ctrls1.perBankWrBursts::8            12522                       # Per bank write bursts
system.mem_ctrls1.perBankWrBursts::9            12735                       # Per bank write bursts
system.mem_ctrls1.perBankWrBursts::10           12539                       # Per bank write bursts
system.mem_ctrls1.perBankWrBursts::11           12466                       # Per bank write bursts
system.mem_ctrls1.perBankWrBursts::12           12461                       # Per bank write bursts
system.mem_ctrls1.perBankWrBursts::13           12461                       # Per bank write bursts
system.mem_ctrls1.perBankWrBursts::14           12702                       # Per bank write bursts
system.mem_ctrls1.perBankWrBursts::15           12555                       # Per bank write bursts
system.mem_ctrls1.numRdRetry                    62249                       # Number of times read queue was full causing retry
system.mem_ctrls1.numWrRetry                     2600                       # Number of times write queue was full causing retry
system.mem_ctrls1.totGap                 130683556500                       # Total gap between requests
system.mem_ctrls1.readPktSize::0                    0                       # Read request sizes (log2)
system.mem_ctrls1.readPktSize::1                    0                       # Read request sizes (log2)
system.mem_ctrls1.readPktSize::2                    0                       # Read request sizes (log2)
system.mem_ctrls1.readPktSize::3                    0                       # Read request sizes (log2)
system.mem_ctrls1.readPktSize::4                    0                       # Read request sizes (log2)
system.mem_ctrls1.readPktSize::5                    0                       # Read request sizes (log2)
system.mem_ctrls1.readPktSize::6               324969                       # Read request sizes (log2)
system.mem_ctrls1.writePktSize::0                   0                       # Write request sizes (log2)
system.mem_ctrls1.writePktSize::1                   0                       # Write request sizes (log2)
system.mem_ctrls1.writePktSize::2                   0                       # Write request sizes (log2)
system.mem_ctrls1.writePktSize::3                   0                       # Write request sizes (log2)
system.mem_ctrls1.writePktSize::4                   0                       # Write request sizes (log2)
system.mem_ctrls1.writePktSize::5                   0                       # Write request sizes (log2)
system.mem_ctrls1.writePktSize::6              201815                       # Write request sizes (log2)
system.mem_ctrls1.rdQLenPdf::0                 171186                       # What read queue length does an incoming req see
system.mem_ctrls1.rdQLenPdf::1                   1707                       # What read queue length does an incoming req see
system.mem_ctrls1.rdQLenPdf::2                   1236                       # What read queue length does an incoming req see
system.mem_ctrls1.rdQLenPdf::3                   1369                       # What read queue length does an incoming req see
system.mem_ctrls1.rdQLenPdf::4                   1472                       # What read queue length does an incoming req see
system.mem_ctrls1.rdQLenPdf::5                   1576                       # What read queue length does an incoming req see
system.mem_ctrls1.rdQLenPdf::6                   1827                       # What read queue length does an incoming req see
system.mem_ctrls1.rdQLenPdf::7                   2036                       # What read queue length does an incoming req see
system.mem_ctrls1.rdQLenPdf::8                   2182                       # What read queue length does an incoming req see
system.mem_ctrls1.rdQLenPdf::9                   2345                       # What read queue length does an incoming req see
system.mem_ctrls1.rdQLenPdf::10                  2549                       # What read queue length does an incoming req see
system.mem_ctrls1.rdQLenPdf::11                  2569                       # What read queue length does an incoming req see
system.mem_ctrls1.rdQLenPdf::12                  2702                       # What read queue length does an incoming req see
system.mem_ctrls1.rdQLenPdf::13                  2753                       # What read queue length does an incoming req see
system.mem_ctrls1.rdQLenPdf::14                  2885                       # What read queue length does an incoming req see
system.mem_ctrls1.rdQLenPdf::15                  2962                       # What read queue length does an incoming req see
system.mem_ctrls1.rdQLenPdf::16                  3097                       # What read queue length does an incoming req see
system.mem_ctrls1.rdQLenPdf::17                  3134                       # What read queue length does an incoming req see
system.mem_ctrls1.rdQLenPdf::18                  3194                       # What read queue length does an incoming req see
system.mem_ctrls1.rdQLenPdf::19                  3309                       # What read queue length does an incoming req see
system.mem_ctrls1.rdQLenPdf::20                  3350                       # What read queue length does an incoming req see
system.mem_ctrls1.rdQLenPdf::21                  3463                       # What read queue length does an incoming req see
system.mem_ctrls1.rdQLenPdf::22                  3557                       # What read queue length does an incoming req see
system.mem_ctrls1.rdQLenPdf::23                  3562                       # What read queue length does an incoming req see
system.mem_ctrls1.rdQLenPdf::24                  3637                       # What read queue length does an incoming req see
system.mem_ctrls1.rdQLenPdf::25                  3919                       # What read queue length does an incoming req see
system.mem_ctrls1.rdQLenPdf::26                  4045                       # What read queue length does an incoming req see
system.mem_ctrls1.rdQLenPdf::27                  4142                       # What read queue length does an incoming req see
system.mem_ctrls1.rdQLenPdf::28                  4112                       # What read queue length does an incoming req see
system.mem_ctrls1.rdQLenPdf::29                  4167                       # What read queue length does an incoming req see
system.mem_ctrls1.rdQLenPdf::30                  4215                       # What read queue length does an incoming req see
system.mem_ctrls1.rdQLenPdf::31                 66689                       # What read queue length does an incoming req see
system.mem_ctrls1.wrQLenPdf::0                  35770                       # What write queue length does an incoming req see
system.mem_ctrls1.wrQLenPdf::1                  36791                       # What write queue length does an incoming req see
system.mem_ctrls1.wrQLenPdf::2                  37160                       # What write queue length does an incoming req see
system.mem_ctrls1.wrQLenPdf::3                  37382                       # What write queue length does an incoming req see
system.mem_ctrls1.wrQLenPdf::4                  37587                       # What write queue length does an incoming req see
system.mem_ctrls1.wrQLenPdf::5                   5519                       # What write queue length does an incoming req see
system.mem_ctrls1.wrQLenPdf::6                   5856                       # What write queue length does an incoming req see
system.mem_ctrls1.wrQLenPdf::7                   5750                       # What write queue length does an incoming req see
system.mem_ctrls1.bytesPerActivate::samples       128003                       # Bytes accessed per row activation
system.mem_ctrls1.bytesPerActivate::mean   263.359828                       # Bytes accessed per row activation
system.mem_ctrls1.bytesPerActivate::gmean   205.655971                       # Bytes accessed per row activation
system.mem_ctrls1.bytesPerActivate::stdev   189.891559                       # Bytes accessed per row activation
system.mem_ctrls1.bytesPerActivate::0-127        25626     20.02%     20.02% # Bytes accessed per row activation
system.mem_ctrls1.bytesPerActivate::128-255        30508     23.83%     43.85% # Bytes accessed per row activation
system.mem_ctrls1.bytesPerActivate::256-383        53599     41.87%     85.73% # Bytes accessed per row activation
system.mem_ctrls1.bytesPerActivate::384-511         6384      4.99%     90.71% # Bytes accessed per row activation
system.mem_ctrls1.bytesPerActivate::512-639         4722      3.69%     94.40% # Bytes accessed per row activation
system.mem_ctrls1.bytesPerActivate::640-767         2318      1.81%     96.21% # Bytes accessed per row activation
system.mem_ctrls1.bytesPerActivate::768-895         1364      1.07%     97.28% # Bytes accessed per row activation
system.mem_ctrls1.bytesPerActivate::896-1023         1014      0.79%     98.07% # Bytes accessed per row activation
system.mem_ctrls1.bytesPerActivate::1024-1151         2468      1.93%    100.00% # Bytes accessed per row activation
system.mem_ctrls1.bytesPerActivate::total       128003                       # Bytes accessed per row activation
system.mem_ctrls1.rdPerTurnAround::samples        36084                       # Reads before turning the bus around for writes
system.mem_ctrls1.rdPerTurnAround::mean      9.004406                       # Reads before turning the bus around for writes
system.mem_ctrls1.rdPerTurnAround::stdev    21.276276                       # Reads before turning the bus around for writes
system.mem_ctrls1.rdPerTurnAround::0-127        36030     99.85%     99.85% # Reads before turning the bus around for writes
system.mem_ctrls1.rdPerTurnAround::128-255           52      0.14%     99.99% # Reads before turning the bus around for writes
system.mem_ctrls1.rdPerTurnAround::1152-1279            1      0.00%    100.00% # Reads before turning the bus around for writes
system.mem_ctrls1.rdPerTurnAround::2816-2943            1      0.00%    100.00% # Reads before turning the bus around for writes
system.mem_ctrls1.rdPerTurnAround::total        36084                       # Reads before turning the bus around for writes
system.mem_ctrls1.wrPerTurnAround::samples        36084                       # Writes before turning the bus around for reads
system.mem_ctrls1.wrPerTurnAround::mean      5.592839                       # Writes before turning the bus around for reads
system.mem_ctrls1.wrPerTurnAround::gmean     5.397509                       # Writes before turning the bus around for reads
system.mem_ctrls1.wrPerTurnAround::stdev     1.938285                       # Writes before turning the bus around for reads
system.mem_ctrls1.wrPerTurnAround::4-7          32763     90.80%     90.80% # Writes before turning the bus around for reads
system.mem_ctrls1.wrPerTurnAround::8-11          2131      5.91%     96.70% # Writes before turning the bus around for reads
system.mem_ctrls1.wrPerTurnAround::12-15          753      2.09%     98.79% # Writes before turning the bus around for reads
system.mem_ctrls1.wrPerTurnAround::16-19          437      1.21%    100.00% # Writes before turning the bus around for reads
system.mem_ctrls1.wrPerTurnAround::total        36084                       # Writes before turning the bus around for reads
system.mem_ctrls1.totQLat                 29461632573                       # Total ticks spent queuing
system.mem_ctrls1.totMemAccLat            35554407573                       # Total ticks spent from burst creation until serviced by the DRAM
system.mem_ctrls1.totBusLat                1624740000                       # Total ticks spent in databus transfers
system.mem_ctrls1.avgQLat                    90665.68                       # Average queueing delay per DRAM burst
system.mem_ctrls1.avgBusLat                   5000.00                       # Average bus latency per DRAM burst
system.mem_ctrls1.avgMemAccLat              109415.68                       # Average memory access latency per DRAM burst
system.mem_ctrls1.avgRdBW                      159.14                       # Average DRAM read bandwidth in MiByte/s
system.mem_ctrls1.avgWrBW                       98.83                       # Average achieved write bandwidth in MiByte/s
system.mem_ctrls1.avgRdBWSys                   159.15                       # Average system read bandwidth in MiByte/s
system.mem_ctrls1.avgWrBWSys                    98.83                       # Average system write bandwidth in MiByte/s
system.mem_ctrls1.peakBW                     12800.00                       # Theoretical peak bandwidth in MiByte/s
system.mem_ctrls1.busUtil                        2.02                       # Data bus utilization in percentage
system.mem_ctrls1.busUtilRead                    1.24                       # Data bus utilization in percentage for reads
system.mem_ctrls1.busUtilWrite                   0.77                       # Data bus utilization in percentage for writes
system.mem_ctrls1.avgRdQLen                      1.24                       # Average read queue length when enqueuing
system.mem_ctrls1.avgWrQLen                      2.98                       # Average write queue length when enqueuing
system.mem_ctrls1.readRowHits                  253936                       # Number of row buffer hits during reads
system.mem_ctrls1.writeRowHits                 144814                       # Number of row buffer hits during writes
system.mem_ctrls1.readRowHitRate                78.15                       # Row buffer hit rate for reads
system.mem_ctrls1.writeRowHitRate               71.76                       # Row buffer hit rate for writes
system.mem_ctrls1.avgGap                    248078.07                       # Average gap between requests
system.mem_ctrls1.pageHitRate                   75.70                       # Row buffer hit rate, read and write combined
system.mem_ctrls1.memoryStateTime::IDLE   28550625000                       # Time in different power states
system.mem_ctrls1.memoryStateTime::REF     4363580000                       # Time in different power states
system.mem_ctrls1.memoryStateTime::PRE_PDN            0                       # Time in different power states
system.mem_ctrls1.memoryStateTime::ACT    97764479500                       # Time in different power states
system.mem_ctrls1.memoryStateTime::ACT_PDN            0                       # Time in different power states
system.mem_ctrls1.actEnergy::0              490107240                       # Energy for activate commands per rank (pJ)
system.mem_ctrls1.actEnergy::1              477565200                       # Energy for activate commands per rank (pJ)
system.mem_ctrls1.preEnergy::0              267419625                       # Energy for precharge commands per rank (pJ)
system.mem_ctrls1.preEnergy::1              260576250                       # Energy for precharge commands per rank (pJ)
system.mem_ctrls1.readEnergy::0            1275229800                       # Energy for read commands per rank (pJ)
system.mem_ctrls1.readEnergy::1            1258974600                       # Energy for read commands per rank (pJ)
system.mem_ctrls1.writeEnergy::0            656884080                       # Energy for write commands per rank (pJ)
system.mem_ctrls1.writeEnergy::1            650760480                       # Energy for write commands per rank (pJ)
system.mem_ctrls1.refreshEnergy::0         8535162480                       # Energy for refresh commands per rank (pJ)
system.mem_ctrls1.refreshEnergy::1         8535162480                       # Energy for refresh commands per rank (pJ)
system.mem_ctrls1.actBackEnergy::0        49126382235                       # Energy for active background per rank (pJ)
system.mem_ctrls1.actBackEnergy::1        48186423450                       # Energy for active background per rank (pJ)
system.mem_ctrls1.preBackEnergy::0        35312818500                       # Energy for precharge background per rank (pJ)
system.mem_ctrls1.preBackEnergy::1        36137343750                       # Energy for precharge background per rank (pJ)
system.mem_ctrls1.totalEnergy::0          95664003960                       # Total energy per rank (pJ)
system.mem_ctrls1.totalEnergy::1          95506806210                       # Total energy per rank (pJ)
system.mem_ctrls1.averagePower::0          732.065182                       # Core power per rank (mW)
system.mem_ctrls1.averagePower::1          730.862232                       # Core power per rank (mW)
system.mem_ctrls2.bytes_read::ruby.dir_cntrl2     20796352                       # Number of bytes read from this memory
system.mem_ctrls2.bytes_read::total          20796352                       # Number of bytes read from this memory
system.mem_ctrls2.bytes_written::ruby.dir_cntrl2     12916544                       # Number of bytes written to this memory
system.mem_ctrls2.bytes_written::total       12916544                       # Number of bytes written to this memory
system.mem_ctrls2.num_reads::ruby.dir_cntrl2       324943                       # Number of read requests responded to by this memory
system.mem_ctrls2.num_reads::total             324943                       # Number of read requests responded to by this memory
system.mem_ctrls2.num_writes::ruby.dir_cntrl2       201821                       # Number of write requests responded to by this memory
system.mem_ctrls2.num_writes::total            201821                       # Number of write requests responded to by this memory
system.mem_ctrls2.bw_read::ruby.dir_cntrl2    159134175                       # Total read bandwidth from this memory (bytes/s)
system.mem_ctrls2.bw_read::total            159134175                       # Total read bandwidth from this memory (bytes/s)
system.mem_ctrls2.bw_write::ruby.dir_cntrl2     98837699                       # Write bandwidth from this memory (bytes/s)
system.mem_ctrls2.bw_write::total            98837699                       # Write bandwidth from this memory (bytes/s)
system.mem_ctrls2.bw_total::ruby.dir_cntrl2    257971874                       # Total bandwidth to/from this memory (bytes/s)
system.mem_ctrls2.bw_total::total           257971874                       # Total bandwidth to/from this memory (bytes/s)
system.mem_ctrls2.readReqs                     324943                       # Number of read requests accepted
system.mem_ctrls2.writeReqs                    201821                       # Number of write requests accepted
system.mem_ctrls2.readBursts                   324943                       # Number of DRAM read bursts, including those serviced by the write queue
system.mem_ctrls2.writeBursts                  201821                       # Number of DRAM write bursts, including those merged in the write queue
system.mem_ctrls2.bytesReadDRAM              20795328                       # Total number of bytes read from DRAM
system.mem_ctrls2.bytesReadWrQ                   1024                       # Total number of bytes read from write queue
system.mem_ctrls2.bytesWritten               12916416                       # Total number of bytes written to DRAM
system.mem_ctrls2.bytesReadSys               20796352                       # Total read bytes from the system interface side
system.mem_ctrls2.bytesWrittenSys            12916544                       # Total written bytes from the system interface side
system.mem_ctrls2.servicedByWrQ                    16                       # Number of DRAM read bursts serviced by the write queue
system.mem_ctrls2.mergedWrBursts                    0                       # Number of DRAM write bursts merged with an existing one
system.mem_ctrls2.neitherReadNorWriteReqs            0                       # Number of requests that are neither read nor write
system.mem_ctrls2.perBankRdBursts::0            20056                       # Per bank write bursts
system.mem_ctrls2.perBankRdBursts::1            20680                       # Per bank write bursts
system.mem_ctrls2.perBankRdBursts::2            20244                       # Per bank write bursts
system.mem_ctrls2.perBankRdBursts::3            20731                       # Per bank write bursts
system.mem_ctrls2.perBankRdBursts::4            20379                       # Per bank write bursts
system.mem_ctrls2.perBankRdBursts::5            20523                       # Per bank write bursts
system.mem_ctrls2.perBankRdBursts::6            20413                       # Per bank write bursts
system.mem_ctrls2.perBankRdBursts::7            20488                       # Per bank write bursts
system.mem_ctrls2.perBankRdBursts::8            20154                       # Per bank write bursts
system.mem_ctrls2.perBankRdBursts::9            20392                       # Per bank write bursts
system.mem_ctrls2.perBankRdBursts::10           20157                       # Per bank write bursts
system.mem_ctrls2.perBankRdBursts::11           20586                       # Per bank write bursts
system.mem_ctrls2.perBankRdBursts::12           20032                       # Per bank write bursts
system.mem_ctrls2.perBankRdBursts::13           19850                       # Per bank write bursts
system.mem_ctrls2.perBankRdBursts::14           20073                       # Per bank write bursts
system.mem_ctrls2.perBankRdBursts::15           20169                       # Per bank write bursts
system.mem_ctrls2.perBankWrBursts::0            12655                       # Per bank write bursts
system.mem_ctrls2.perBankWrBursts::1            12623                       # Per bank write bursts
system.mem_ctrls2.perBankWrBursts::2            12530                       # Per bank write bursts
system.mem_ctrls2.perBankWrBursts::3            12794                       # Per bank write bursts
system.mem_ctrls2.perBankWrBursts::4            12622                       # Per bank write bursts
system.mem_ctrls2.perBankWrBursts::5            12702                       # Per bank write bursts
system.mem_ctrls2.perBankWrBursts::6            12638                       # Per bank write bursts
system.mem_ctrls2.perBankWrBursts::7            12794                       # Per bank write bursts
system.mem_ctrls2.perBankWrBursts::8            12506                       # Per bank write bursts
system.mem_ctrls2.perBankWrBursts::9            12741                       # Per bank write bursts
system.mem_ctrls2.perBankWrBursts::10           12536                       # Per bank write bursts
system.mem_ctrls2.perBankWrBursts::11           12480                       # Per bank write bursts
system.mem_ctrls2.perBankWrBursts::12           12468                       # Per bank write bursts
system.mem_ctrls2.perBankWrBursts::13           12455                       # Per bank write bursts
system.mem_ctrls2.perBankWrBursts::14           12707                       # Per bank write bursts
system.mem_ctrls2.perBankWrBursts::15           12568                       # Per bank write bursts
system.mem_ctrls2.numRdRetry                    59988                       # Number of times read queue was full causing retry
system.mem_ctrls2.numWrRetry                     2378                       # Number of times write queue was full causing retry
system.mem_ctrls2.totGap                 130684295000                       # Total gap between requests
system.mem_ctrls2.readPktSize::0                    0                       # Read request sizes (log2)
system.mem_ctrls2.readPktSize::1                    0                       # Read request sizes (log2)
system.mem_ctrls2.readPktSize::2                    0                       # Read request sizes (log2)
system.mem_ctrls2.readPktSize::3                    0                       # Read request sizes (log2)
system.mem_ctrls2.readPktSize::4                    0                       # Read request sizes (log2)
system.mem_ctrls2.readPktSize::5                    0                       # Read request sizes (log2)
system.mem_ctrls2.readPktSize::6               324943                       # Read request sizes (log2)
system.mem_ctrls2.writePktSize::0                   0                       # Write request sizes (log2)
system.mem_ctrls2.writePktSize::1                   0                       # Write request sizes (log2)
system.mem_ctrls2.writePktSize::2                   0                       # Write request sizes (log2)
system.mem_ctrls2.writePktSize::3                   0                       # Write request sizes (log2)
system.mem_ctrls2.writePktSize::4                   0                       # Write request sizes (log2)
system.mem_ctrls2.writePktSize::5                   0                       # Write request sizes (log2)
system.mem_ctrls2.writePktSize::6              201821                       # Write request sizes (log2)
system.mem_ctrls2.rdQLenPdf::0                 171313                       # What read queue length does an incoming req see
system.mem_ctrls2.rdQLenPdf::1                   1528                       # What read queue length does an incoming req see
system.mem_ctrls2.rdQLenPdf::2                   1192                       # What read queue length does an incoming req see
system.mem_ctrls2.rdQLenPdf::3                   1257                       # What read queue length does an incoming req see
system.mem_ctrls2.rdQLenPdf::4                   1367                       # What read queue length does an incoming req see
system.mem_ctrls2.rdQLenPdf::5                   1545                       # What read queue length does an incoming req see
system.mem_ctrls2.rdQLenPdf::6                   1826                       # What read queue length does an incoming req see
system.mem_ctrls2.rdQLenPdf::7                   2024                       # What read queue length does an incoming req see
system.mem_ctrls2.rdQLenPdf::8                   2220                       # What read queue length does an incoming req see
system.mem_ctrls2.rdQLenPdf::9                   2434                       # What read queue length does an incoming req see
system.mem_ctrls2.rdQLenPdf::10                  2526                       # What read queue length does an incoming req see
system.mem_ctrls2.rdQLenPdf::11                  2655                       # What read queue length does an incoming req see
system.mem_ctrls2.rdQLenPdf::12                  2758                       # What read queue length does an incoming req see
system.mem_ctrls2.rdQLenPdf::13                  2935                       # What read queue length does an incoming req see
system.mem_ctrls2.rdQLenPdf::14                  3075                       # What read queue length does an incoming req see
system.mem_ctrls2.rdQLenPdf::15                  3075                       # What read queue length does an incoming req see
system.mem_ctrls2.rdQLenPdf::16                  3039                       # What read queue length does an incoming req see
system.mem_ctrls2.rdQLenPdf::17                  3284                       # What read queue length does an incoming req see
system.mem_ctrls2.rdQLenPdf::18                  3303                       # What read queue length does an incoming req see
system.mem_ctrls2.rdQLenPdf::19                  3418                       # What read queue length does an incoming req see
system.mem_ctrls2.rdQLenPdf::20                  3359                       # What read queue length does an incoming req see
system.mem_ctrls2.rdQLenPdf::21                  3420                       # What read queue length does an incoming req see
system.mem_ctrls2.rdQLenPdf::22                  3646                       # What read queue length does an incoming req see
system.mem_ctrls2.rdQLenPdf::23                  3813                       # What read queue length does an incoming req see
system.mem_ctrls2.rdQLenPdf::24                  4076                       # What read queue length does an incoming req see
system.mem_ctrls2.rdQLenPdf::25                  4041                       # What read queue length does an incoming req see
system.mem_ctrls2.rdQLenPdf::26                  4140                       # What read queue length does an incoming req see
system.mem_ctrls2.rdQLenPdf::27                  4175                       # What read queue length does an incoming req see
system.mem_ctrls2.rdQLenPdf::28                  4209                       # What read queue length does an incoming req see
system.mem_ctrls2.rdQLenPdf::29                  4310                       # What read queue length does an incoming req see
system.mem_ctrls2.rdQLenPdf::30                  4347                       # What read queue length does an incoming req see
system.mem_ctrls2.rdQLenPdf::31                 64617                       # What read queue length does an incoming req see
system.mem_ctrls2.wrQLenPdf::0                  35772                       # What write queue length does an incoming req see
system.mem_ctrls2.wrQLenPdf::1                  36807                       # What write queue length does an incoming req see
system.mem_ctrls2.wrQLenPdf::2                  37277                       # What write queue length does an incoming req see
system.mem_ctrls2.wrQLenPdf::3                  37387                       # What write queue length does an incoming req see
system.mem_ctrls2.wrQLenPdf::4                  37548                       # What write queue length does an incoming req see
system.mem_ctrls2.wrQLenPdf::5                   5415                       # What write queue length does an incoming req see
system.mem_ctrls2.wrQLenPdf::6                   5864                       # What write queue length does an incoming req see
system.mem_ctrls2.wrQLenPdf::7                   5751                       # What write queue length does an incoming req see
system.mem_ctrls2.bytesPerActivate::samples       127650                       # Bytes accessed per row activation
system.mem_ctrls2.bytesPerActivate::mean   264.081097                       # Bytes accessed per row activation
system.mem_ctrls2.bytesPerActivate::gmean   206.333795                       # Bytes accessed per row activation
system.mem_ctrls2.bytesPerActivate::stdev   189.673550                       # Bytes accessed per row activation
system.mem_ctrls2.bytesPerActivate::0-127        25671     20.11%     20.11% # Bytes accessed per row activation
system.mem_ctrls2.bytesPerActivate::128-255        29364     23.00%     43.11% # Bytes accessed per row activation
system.mem_ctrls2.bytesPerActivate::256-383        54408     42.62%     85.74% # Bytes accessed per row activation
system.mem_ctrls2.bytesPerActivate::384-511         6322      4.95%     90.69% # Bytes accessed per row activation
system.mem_ctrls2.bytesPerActivate::512-639         4772      3.74%     94.43% # Bytes accessed per row activation
system.mem_ctrls2.bytesPerActivate::640-767         2281      1.79%     96.21% # Bytes accessed per row activation
system.mem_ctrls2.bytesPerActivate::768-895         1401      1.10%     97.31% # Bytes accessed per row activation
system.mem_ctrls2.bytesPerActivate::896-1023          948      0.74%     98.05% # Bytes accessed per row activation
system.mem_ctrls2.bytesPerActivate::1024-1151         2483      1.95%    100.00% # Bytes accessed per row activation
system.mem_ctrls2.bytesPerActivate::total       127650                       # Bytes accessed per row activation
system.mem_ctrls2.rdPerTurnAround::samples        36079                       # Reads before turning the bus around for writes
system.mem_ctrls2.rdPerTurnAround::mean      9.005044                       # Reads before turning the bus around for writes
system.mem_ctrls2.rdPerTurnAround::stdev    21.328741                       # Reads before turning the bus around for writes
system.mem_ctrls2.rdPerTurnAround::0-127        36035     99.88%     99.88% # Reads before turning the bus around for writes
system.mem_ctrls2.rdPerTurnAround::128-255           42      0.12%     99.99% # Reads before turning the bus around for writes
system.mem_ctrls2.rdPerTurnAround::1152-1279            1      0.00%    100.00% # Reads before turning the bus around for writes
system.mem_ctrls2.rdPerTurnAround::2816-2943            1      0.00%    100.00% # Reads before turning the bus around for writes
system.mem_ctrls2.rdPerTurnAround::total        36079                       # Reads before turning the bus around for writes
system.mem_ctrls2.wrPerTurnAround::samples        36079                       # Writes before turning the bus around for reads
system.mem_ctrls2.wrPerTurnAround::mean      5.593808                       # Writes before turning the bus around for reads
system.mem_ctrls2.wrPerTurnAround::gmean     5.398022                       # Writes before turning the bus around for reads
system.mem_ctrls2.wrPerTurnAround::stdev     1.939908                       # Writes before turning the bus around for reads
system.mem_ctrls2.wrPerTurnAround::4-7          32738     90.74%     90.74% # Writes before turning the bus around for reads
system.mem_ctrls2.wrPerTurnAround::8-11          2154      5.97%     96.71% # Writes before turning the bus around for reads
system.mem_ctrls2.wrPerTurnAround::12-15          742      2.06%     98.77% # Writes before turning the bus around for reads
system.mem_ctrls2.wrPerTurnAround::16-19          445      1.23%    100.00% # Writes before turning the bus around for reads
system.mem_ctrls2.wrPerTurnAround::total        36079                       # Writes before turning the bus around for reads
system.mem_ctrls2.totQLat                 29366672071                       # Total ticks spent queuing
system.mem_ctrls2.totMemAccLat            35459053321                       # Total ticks spent from burst creation until serviced by the DRAM
system.mem_ctrls2.totBusLat                1624635000                       # Total ticks spent in databus transfers
system.mem_ctrls2.avgQLat                    90379.29                       # Average queueing delay per DRAM burst
system.mem_ctrls2.avgBusLat                   5000.00                       # Average bus latency per DRAM burst
system.mem_ctrls2.avgMemAccLat              109129.29                       # Average memory access latency per DRAM burst
system.mem_ctrls2.avgRdBW                      159.13                       # Average DRAM read bandwidth in MiByte/s
system.mem_ctrls2.avgWrBW                       98.84                       # Average achieved write bandwidth in MiByte/s
system.mem_ctrls2.avgRdBWSys                   159.13                       # Average system read bandwidth in MiByte/s
system.mem_ctrls2.avgWrBWSys                    98.84                       # Average system write bandwidth in MiByte/s
system.mem_ctrls2.peakBW                     12800.00                       # Theoretical peak bandwidth in MiByte/s
system.mem_ctrls2.busUtil                        2.02                       # Data bus utilization in percentage
system.mem_ctrls2.busUtilRead                    1.24                       # Data bus utilization in percentage for reads
system.mem_ctrls2.busUtilWrite                   0.77                       # Data bus utilization in percentage for writes
system.mem_ctrls2.avgRdQLen                      1.24                       # Average read queue length when enqueuing
system.mem_ctrls2.avgWrQLen                      2.95                       # Average write queue length when enqueuing
system.mem_ctrls2.readRowHits                  253860                       # Number of row buffer hits during reads
system.mem_ctrls2.writeRowHits                 145229                       # Number of row buffer hits during writes
system.mem_ctrls2.readRowHitRate                78.13                       # Row buffer hit rate for reads
system.mem_ctrls2.writeRowHitRate               71.96                       # Row buffer hit rate for writes
system.mem_ctrls2.avgGap                    248088.89                       # Average gap between requests
system.mem_ctrls2.pageHitRate                   75.76                       # Row buffer hit rate, read and write combined
system.mem_ctrls2.memoryStateTime::IDLE   28405323000                       # Time in different power states
system.mem_ctrls2.memoryStateTime::REF     4363580000                       # Time in different power states
system.mem_ctrls2.memoryStateTime::PRE_PDN            0                       # Time in different power states
system.mem_ctrls2.memoryStateTime::ACT    97909783500                       # Time in different power states
system.mem_ctrls2.memoryStateTime::ACT_PDN            0                       # Time in different power states
system.mem_ctrls2.actEnergy::0              489101760                       # Energy for activate commands per rank (pJ)
system.mem_ctrls2.actEnergy::1              475894440                       # Energy for activate commands per rank (pJ)
system.mem_ctrls2.preEnergy::0              266871000                       # Energy for precharge commands per rank (pJ)
system.mem_ctrls2.preEnergy::1              259664625                       # Energy for precharge commands per rank (pJ)
system.mem_ctrls2.readEnergy::0            1275058200                       # Energy for read commands per rank (pJ)
system.mem_ctrls2.readEnergy::1            1258974600                       # Energy for read commands per rank (pJ)
system.mem_ctrls2.writeEnergy::0            656799840                       # Energy for write commands per rank (pJ)
system.mem_ctrls2.writeEnergy::1            650890080                       # Energy for write commands per rank (pJ)
system.mem_ctrls2.refreshEnergy::0         8535162480                       # Energy for refresh commands per rank (pJ)
system.mem_ctrls2.refreshEnergy::1         8535162480                       # Energy for refresh commands per rank (pJ)
system.mem_ctrls2.actBackEnergy::0        48858989535                       # Energy for active background per rank (pJ)
system.mem_ctrls2.actBackEnergy::1        47929404465                       # Energy for active background per rank (pJ)
system.mem_ctrls2.preBackEnergy::0        35547373500                       # Energy for precharge background per rank (pJ)
system.mem_ctrls2.preBackEnergy::1        36362799000                       # Energy for precharge background per rank (pJ)
system.mem_ctrls2.totalEnergy::0          95629356315                       # Total energy per rank (pJ)
system.mem_ctrls2.totalEnergy::1          95472789690                       # Total energy per rank (pJ)
system.mem_ctrls2.averagePower::0          731.800042                       # Core power per rank (mW)
system.mem_ctrls2.averagePower::1          730.601922                       # Core power per rank (mW)
system.mem_ctrls3.bytes_read::ruby.dir_cntrl3     20775168                       # Number of bytes read from this memory
system.mem_ctrls3.bytes_read::total          20775168                       # Number of bytes read from this memory
system.mem_ctrls3.bytes_written::ruby.dir_cntrl3     12915264                       # Number of bytes written to this memory
system.mem_ctrls3.bytes_written::total       12915264                       # Number of bytes written to this memory
system.mem_ctrls3.num_reads::ruby.dir_cntrl3       324612                       # Number of read requests responded to by this memory
system.mem_ctrls3.num_reads::total             324612                       # Number of read requests responded to by this memory
system.mem_ctrls3.num_writes::ruby.dir_cntrl3       201801                       # Number of write requests responded to by this memory
system.mem_ctrls3.num_writes::total            201801                       # Number of write requests responded to by this memory
system.mem_ctrls3.bw_read::ruby.dir_cntrl3    158972075                       # Total read bandwidth from this memory (bytes/s)
system.mem_ctrls3.bw_read::total            158972075                       # Total read bandwidth from this memory (bytes/s)
system.mem_ctrls3.bw_write::ruby.dir_cntrl3     98827904                       # Write bandwidth from this memory (bytes/s)
system.mem_ctrls3.bw_write::total            98827904                       # Write bandwidth from this memory (bytes/s)
system.mem_ctrls3.bw_total::ruby.dir_cntrl3    257799979                       # Total bandwidth to/from this memory (bytes/s)
system.mem_ctrls3.bw_total::total           257799979                       # Total bandwidth to/from this memory (bytes/s)
system.mem_ctrls3.readReqs                     324612                       # Number of read requests accepted
system.mem_ctrls3.writeReqs                    201801                       # Number of write requests accepted
system.mem_ctrls3.readBursts                   324612                       # Number of DRAM read bursts, including those serviced by the write queue
system.mem_ctrls3.writeBursts                  201801                       # Number of DRAM write bursts, including those merged in the write queue
system.mem_ctrls3.bytesReadDRAM              20774336                       # Total number of bytes read from DRAM
system.mem_ctrls3.bytesReadWrQ                    832                       # Total number of bytes read from write queue
system.mem_ctrls3.bytesWritten               12915136                       # Total number of bytes written to DRAM
system.mem_ctrls3.bytesReadSys               20775168                       # Total read bytes from the system interface side
system.mem_ctrls3.bytesWrittenSys            12915264                       # Total written bytes from the system interface side
system.mem_ctrls3.servicedByWrQ                    13                       # Number of DRAM read bursts serviced by the write queue
system.mem_ctrls3.mergedWrBursts                    0                       # Number of DRAM write bursts merged with an existing one
system.mem_ctrls3.neitherReadNorWriteReqs            0                       # Number of requests that are neither read nor write
system.mem_ctrls3.perBankRdBursts::0            20051                       # Per bank write bursts
system.mem_ctrls3.perBankRdBursts::1            20651                       # Per bank write bursts
system.mem_ctrls3.perBankRdBursts::2            20160                       # Per bank write bursts
system.mem_ctrls3.perBankRdBursts::3            20701                       # Per bank write bursts
system.mem_ctrls3.perBankRdBursts::4            20311                       # Per bank write bursts
system.mem_ctrls3.perBankRdBursts::5            20518                       # Per bank write bursts
system.mem_ctrls3.perBankRdBursts::6            20425                       # Per bank write bursts
system.mem_ctrls3.perBankRdBursts::7            20468                       # Per bank write bursts
system.mem_ctrls3.perBankRdBursts::8            20145                       # Per bank write bursts
system.mem_ctrls3.perBankRdBursts::9            20381                       # Per bank write bursts
system.mem_ctrls3.perBankRdBursts::10           20195                       # Per bank write bursts
system.mem_ctrls3.perBankRdBursts::11           20539                       # Per bank write bursts
system.mem_ctrls3.perBankRdBursts::12           19976                       # Per bank write bursts
system.mem_ctrls3.perBankRdBursts::13           19842                       # Per bank write bursts
system.mem_ctrls3.perBankRdBursts::14           20095                       # Per bank write bursts
system.mem_ctrls3.perBankRdBursts::15           20141                       # Per bank write bursts
system.mem_ctrls3.perBankWrBursts::0            12661                       # Per bank write bursts
system.mem_ctrls3.perBankWrBursts::1            12614                       # Per bank write bursts
system.mem_ctrls3.perBankWrBursts::2            12538                       # Per bank write bursts
system.mem_ctrls3.perBankWrBursts::3            12785                       # Per bank write bursts
system.mem_ctrls3.perBankWrBursts::4            12621                       # Per bank write bursts
system.mem_ctrls3.perBankWrBursts::5            12705                       # Per bank write bursts
system.mem_ctrls3.perBankWrBursts::6            12634                       # Per bank write bursts
system.mem_ctrls3.perBankWrBursts::7            12787                       # Per bank write bursts
system.mem_ctrls3.perBankWrBursts::8            12503                       # Per bank write bursts
system.mem_ctrls3.perBankWrBursts::9            12744                       # Per bank write bursts
system.mem_ctrls3.perBankWrBursts::10           12536                       # Per bank write bursts
system.mem_ctrls3.perBankWrBursts::11           12486                       # Per bank write bursts
system.mem_ctrls3.perBankWrBursts::12           12464                       # Per bank write bursts
system.mem_ctrls3.perBankWrBursts::13           12460                       # Per bank write bursts
system.mem_ctrls3.perBankWrBursts::14           12712                       # Per bank write bursts
system.mem_ctrls3.perBankWrBursts::15           12549                       # Per bank write bursts
system.mem_ctrls3.numRdRetry                    58554                       # Number of times read queue was full causing retry
system.mem_ctrls3.numWrRetry                     2081                       # Number of times write queue was full causing retry
system.mem_ctrls3.totGap                 130683246000                       # Total gap between requests
system.mem_ctrls3.readPktSize::0                    0                       # Read request sizes (log2)
system.mem_ctrls3.readPktSize::1                    0                       # Read request sizes (log2)
system.mem_ctrls3.readPktSize::2                    0                       # Read request sizes (log2)
system.mem_ctrls3.readPktSize::3                    0                       # Read request sizes (log2)
system.mem_ctrls3.readPktSize::4                    0                       # Read request sizes (log2)
system.mem_ctrls3.readPktSize::5                    0                       # Read request sizes (log2)
system.mem_ctrls3.readPktSize::6               324612                       # Read request sizes (log2)
system.mem_ctrls3.writePktSize::0                   0                       # Write request sizes (log2)
system.mem_ctrls3.writePktSize::1                   0                       # Write request sizes (log2)
system.mem_ctrls3.writePktSize::2                   0                       # Write request sizes (log2)
system.mem_ctrls3.writePktSize::3                   0                       # Write request sizes (log2)
system.mem_ctrls3.writePktSize::4                   0                       # Write request sizes (log2)
system.mem_ctrls3.writePktSize::5                   0                       # Write request sizes (log2)
system.mem_ctrls3.writePktSize::6              201801                       # Write request sizes (log2)
system.mem_ctrls3.rdQLenPdf::0                 170917                       # What read queue length does an incoming req see
system.mem_ctrls3.rdQLenPdf::1                   1580                       # What read queue length does an incoming req see
system.mem_ctrls3.rdQLenPdf::2                   1232                       # What read queue length does an incoming req see
system.mem_ctrls3.rdQLenPdf::3                   1295                       # What read queue length does an incoming req see
system.mem_ctrls3.rdQLenPdf::4                   1445                       # What read queue length does an incoming req see
system.mem_ctrls3.rdQLenPdf::5                   1621                       # What read queue length does an incoming req see
system.mem_ctrls3.rdQLenPdf::6                   1785                       # What read queue length does an incoming req see
system.mem_ctrls3.rdQLenPdf::7                   2045                       # What read queue length does an incoming req see
system.mem_ctrls3.rdQLenPdf::8                   2146                       # What read queue length does an incoming req see
system.mem_ctrls3.rdQLenPdf::9                   2414                       # What read queue length does an incoming req see
system.mem_ctrls3.rdQLenPdf::10                  2614                       # What read queue length does an incoming req see
system.mem_ctrls3.rdQLenPdf::11                  2788                       # What read queue length does an incoming req see
system.mem_ctrls3.rdQLenPdf::12                  2866                       # What read queue length does an incoming req see
system.mem_ctrls3.rdQLenPdf::13                  3009                       # What read queue length does an incoming req see
system.mem_ctrls3.rdQLenPdf::14                  3198                       # What read queue length does an incoming req see
system.mem_ctrls3.rdQLenPdf::15                  3182                       # What read queue length does an incoming req see
system.mem_ctrls3.rdQLenPdf::16                  3354                       # What read queue length does an incoming req see
system.mem_ctrls3.rdQLenPdf::17                  3378                       # What read queue length does an incoming req see
system.mem_ctrls3.rdQLenPdf::18                  3489                       # What read queue length does an incoming req see
system.mem_ctrls3.rdQLenPdf::19                  3570                       # What read queue length does an incoming req see
system.mem_ctrls3.rdQLenPdf::20                  3697                       # What read queue length does an incoming req see
system.mem_ctrls3.rdQLenPdf::21                  3745                       # What read queue length does an incoming req see
system.mem_ctrls3.rdQLenPdf::22                  3761                       # What read queue length does an incoming req see
system.mem_ctrls3.rdQLenPdf::23                  3851                       # What read queue length does an incoming req see
system.mem_ctrls3.rdQLenPdf::24                  3906                       # What read queue length does an incoming req see
[...]
system.ruby.L2Cache_Controller.S_I.Ack_all::total           32                      
system.ruby.L2Cache_Controller.ISS.Mem_Data |       25583      5.07%      5.07% |       15489      3.07%      8.14% |       15522      3.08%     11.22% |       15465      3.07%     14.29% |       15442      3.06%     17.35% |       15420      3.06%     20.41% |       15428      3.06%     23.47% |       15426      3.06%     26.53% |       15459      3.07%     29.59% |       15470      3.07%     32.66% |       15496      3.07%     35.73% |       15422      3.06%     38.79% |       15436      3.06%     41.85% |       15443      3.06%     44.91% |       15449      3.06%     47.98% |       15415      3.06%     51.03% |       15424      3.06%     54.09% |       15416      3.06%     57.15% |       15444      3.06%     60.21% |       15419      3.06%     63.27% |       15447      3.06%     66.33% |       15458      3.07%     69.40% |       15456      3.06%     72.46% |       15436      3.06%     75.52% |       15446      3.06%     78.59% |       15443      3.06%     81.65% |       15422      3.06%     84.71% |       15410      3.06%     87.76% |       15445      3.06%     90.83% |       15414      3.06%     93.88% |       15410      3.06%     96.94% |       15438      3.06%    100.00%
system.ruby.L2Cache_Controller.ISS.Mem_Data::total       504293                      
system.ruby.L2Cache_Controller.IS.Mem_Data |         503      3.21%      3.21% |         453      2.89%      6.09% |         439      2.80%      8.89% |         450      2.87%     11.76% |         451      2.87%     14.63% |         430      2.74%     17.37% |         472      3.01%     20.38% |         491      3.13%     23.51% |         505      3.22%     26.73% |         445      2.84%     29.56% |         487      3.10%     32.67% |         498      3.17%     35.84% |         551      3.51%     39.35% |         523      3.33%     42.68% |         510      3.25%     45.93% |         492      3.14%     49.07% |         515      3.28%     52.35% |         532      3.39%     55.74% |         529      3.37%     59.11% |         483      3.08%     62.19% |         474      3.02%     65.21% |         523      3.33%     68.54% |         477      3.04%     71.58% |         451      2.87%     74.46% |         518      3.30%     77.76% |         578      3.68%     81.44% |         523      3.33%     84.78% |         481      3.07%     87.84% |         457      2.91%     90.75% |         510      3.25%     94.00% |         487      3.10%     97.11% |         454      2.89%    100.00%
system.ruby.L2Cache_Controller.IS.Mem_Data::total        15692                      
system.ruby.L2Cache_Controller.IM.Mem_Data |       24769      3.14%      3.14% |       24665      3.12%      6.26% |       24674      3.12%      9.38% |       24679      3.13%     12.51% |       24670      3.12%     15.63% |       24674      3.12%     18.76% |       24675      3.12%     21.88% |       24666      3.12%     25.01% |       24681      3.13%     28.13% |       24680      3.13%     31.26% |       24663      3.12%     34.38% |       24687      3.13%     37.50% |       24674      3.12%     40.63% |       24671      3.12%     43.75% |       24669      3.12%     46.88% |       24662      3.12%     50.00% |       24683      3.13%     53.13% |       24680      3.13%     56.25% |       24677      3.12%     59.38% |       24675      3.12%     62.50% |       24688      3.13%     65.63% |       24700      3.13%     68.75% |       24670      3.12%     71.88% |       24674      3.12%     75.00% |       24686      3.13%     78.13% |       24680      3.13%     81.25% |       24683      3.13%     84.38% |       24670      3.12%     87.50% |       24671      3.12%     90.63% |       24672      3.12%     93.75% |       24681      3.13%     96.88% |       24668      3.12%    100.00%
system.ruby.L2Cache_Controller.IM.Mem_Data::total       789717                      
system.ruby.L2Cache_Controller.SS_MB.Exclusive_Unblock |           2      4.17%      4.17% |           4      8.33%     12.50% |           5     10.42%     22.92% |           3      6.25%     29.17% |           0      0.00%     29.17% |           0      0.00%     29.17% |           0      0.00%     29.17% |           0      0.00%     29.17% |           1      2.08%     31.25% |           1      2.08%     33.33% |           0      0.00%     33.33% |           1      2.08%     35.42% |           6     12.50%     47.92% |           0      0.00%     47.92% |           2      4.17%     52.08% |           0      0.00%     52.08% |           0      0.00%     52.08% |           0      0.00%     52.08% |           7     14.58%     66.67% |           5     10.42%     77.08% |           1      2.08%     79.17% |           0      0.00%     79.17% |           0      0.00%     79.17% |           0      0.00%     79.17% |           1      2.08%     81.25% |           1      2.08%     83.33% |           1      2.08%     85.42% |           1      2.08%     87.50% |           5     10.42%     97.92% |           0      0.00%     97.92% |           1      2.08%    100.00% |           0      0.00%    100.00%
system.ruby.L2Cache_Controller.SS_MB.Exclusive_Unblock::total           48                      
system.ruby.L2Cache_Controller.MT_MB.L1_PUTX |           7    100.00%    100.00% |           0      0.00%    100.00% |           0      0.00%    100.00% |           0      0.00%    100.00% |           0      0.00%    100.00% |           0      0.00%    100.00% |           0      0.00%    100.00% |           0      0.00%    100.00% |           0      0.00%    100.00% |           0      0.00%    100.00% |           0      0.00%    100.00% |           0      0.00%    100.00% |           0      0.00%    100.00% |           0      0.00%    100.00% |           0      0.00%    100.00% |           0      0.00%    100.00% |           0      0.00%    100.00% |           0      0.00%    100.00% |           0      0.00%    100.00% |           0      0.00%    100.00% |           0      0.00%    100.00% |           0      0.00%    100.00% |           0      0.00%    100.00% |           0      0.00%    100.00% |           0      0.00%    100.00% |           0      0.00%    100.00% |           0      0.00%    100.00% |           0      0.00%    100.00% |           0      0.00%    100.00% |           0      0.00%    100.00% |           0      0.00%    100.00% |           0      0.00%    100.00%
system.ruby.L2Cache_Controller.MT_MB.L1_PUTX::total            7                      
system.ruby.L2Cache_Controller.MT_MB.Exclusive_Unblock |      171935      9.58%      9.58% |       54288      3.03%     12.61% |       49290      2.75%     15.36% |       52990      2.95%     18.31% |       53510      2.98%     21.29% |       49518      2.76%     24.05% |       45957      2.56%     26.61% |       45966      2.56%     29.18% |       51551      2.87%     32.05% |       49817      2.78%     34.83% |       54066      3.01%     37.84% |       51032      2.84%     40.68% |       48290      2.69%     43.38% |       46919      2.62%     45.99% |       47886      2.67%     48.66% |       46617      2.60%     51.26% |       50566      2.82%     54.08% |       48370      2.70%     56.77% |       49899      2.78%     59.55% |       54006      3.01%     62.56% |       54527      3.04%     65.60% |       63392      3.53%     69.14% |       58002      3.23%     72.37% |       53247      2.97%     75.34% |       53474      2.98%     78.32% |       51440      2.87%     81.19% |       52507      2.93%     84.11% |       52310      2.92%     87.03% |       55505      3.09%     90.12% |       55169      3.07%     93.20% |       63471      3.54%     96.73% |       58598      3.27%    100.00%
system.ruby.L2Cache_Controller.MT_MB.Exclusive_Unblock::total      1794115                      
system.ruby.L2Cache_Controller.MT_IIB.WB_Data |           0      0.00%      0.00% |           0      0.00%      0.00% |           1      7.14%      7.14% |           1      7.14%     14.29% |           1      7.14%     21.43% |           0      0.00%     21.43% |           1      7.14%     28.57% |           0      0.00%     28.57% |           1      7.14%     35.71% |           1      7.14%     42.86% |           1      7.14%     50.00% |           1      7.14%     57.14% |           1      7.14%     64.29% |           0      0.00%     64.29% |           1      7.14%     71.43% |           1      7.14%     78.57% |           1      7.14%     85.71% |           1      7.14%     92.86% |           1      7.14%    100.00% |           0      0.00%    100.00% |           0      0.00%    100.00% |           0      0.00%    100.00% |           0      0.00%    100.00% |           0      0.00%    100.00% |           0      0.00%    100.00% |           0      0.00%    100.00% |           0      0.00%    100.00% |           0      0.00%    100.00% |           0      0.00%    100.00% |           0      0.00%    100.00% |           0      0.00%    100.00% |           0      0.00%    100.00%
system.ruby.L2Cache_Controller.MT_IIB.WB_Data::total           14                      
system.ruby.L2Cache_Controller.MT_IIB.WB_Data_clean |           5    100.00%    100.00% |           0      0.00%    100.00% |           0      0.00%    100.00% |           0      0.00%    100.00% |           0      0.00%    100.00% |           0      0.00%    100.00% |           0      0.00%    100.00% |           0      0.00%    100.00% |           0      0.00%    100.00% |           0      0.00%    100.00% |           0      0.00%    100.00% |           0      0.00%    100.00% |           0      0.00%    100.00% |           0      0.00%    100.00% |           0      0.00%    100.00% |           0      0.00%    100.00% |           0      0.00%    100.00% |           0      0.00%    100.00% |           0      0.00%    100.00% |           0      0.00%    100.00% |           0      0.00%    100.00% |           0      0.00%    100.00% |           0      0.00%    100.00% |           0      0.00%    100.00% |           0      0.00%    100.00% |           0      0.00%    100.00% |           0      0.00%    100.00% |           0      0.00%    100.00% |           0      0.00%    100.00% |           0      0.00%    100.00% |           0      0.00%    100.00% |           0      0.00%    100.00%
system.ruby.L2Cache_Controller.MT_IIB.WB_Data_clean::total            5                      
system.ruby.L2Cache_Controller.MT_IIB.Unblock |           0      0.00%      0.00% |           0      0.00%      0.00% |           0      0.00%      0.00% |           0      0.00%      0.00% |           0      0.00%      0.00% |           0      0.00%      0.00% |           0      0.00%      0.00% |           1     50.00%     50.00% |           0      0.00%     50.00% |           0      0.00%     50.00% |           0      0.00%     50.00% |           0      0.00%     50.00% |           0      0.00%     50.00% |           1     50.00%    100.00% |           0      0.00%    100.00% |           0      0.00%    100.00% |           0      0.00%    100.00% |           0      0.00%    100.00% |           0      0.00%    100.00% |           0      0.00%    100.00% |           0      0.00%    100.00% |           0      0.00%    100.00% |           0      0.00%    100.00% |           0      0.00%    100.00% |           0      0.00%    100.00% |           0      0.00%    100.00% |           0      0.00%    100.00% |           0      0.00%    100.00% |           0      0.00%    100.00% |           0      0.00%    100.00% |           0      0.00%    100.00% |           0      0.00%    100.00%
system.ruby.L2Cache_Controller.MT_IIB.Unblock::total            2                      
system.ruby.L2Cache_Controller.MT_IB.WB_Data |           0      0.00%      0.00% |           0      0.00%      0.00% |           0      0.00%      0.00% |           0      0.00%      0.00% |           0      0.00%      0.00% |           0      0.00%      0.00% |           0      0.00%      0.00% |           1     50.00%     50.00% |           0      0.00%     50.00% |           0      0.00%     50.00% |           0      0.00%     50.00% |           0      0.00%     50.00% |           0      0.00%     50.00% |           1     50.00%    100.00% |           0      0.00%    100.00% |           0      0.00%    100.00% |           0      0.00%    100.00% |           0      0.00%    100.00% |           0      0.00%    100.00% |           0      0.00%    100.00% |           0      0.00%    100.00% |           0      0.00%    100.00% |           0      0.00%    100.00% |           0      0.00%    100.00% |           0      0.00%    100.00% |           0      0.00%    100.00% |           0      0.00%    100.00% |           0      0.00%    100.00% |           0      0.00%    100.00% |           0      0.00%    100.00% |           0      0.00%    100.00% |           0      0.00%    100.00%
system.ruby.L2Cache_Controller.MT_IB.WB_Data::total            2                      
system.ruby.L2Cache_Controller.MT_SB.Unblock |           5     26.32%     26.32% |           0      0.00%     26.32% |           1      5.26%     31.58% |           1      5.26%     36.84% |           1      5.26%     42.11% |           0      0.00%     42.11% |           1      5.26%     47.37% |           0      0.00%     47.37% |           1      5.26%     52.63% |           1      5.26%     57.89% |           1      5.26%     63.16% |           1      5.26%     68.42% |           1      5.26%     73.68% |           0      0.00%     73.68% |           1      5.26%     78.95% |           1      5.26%     84.21% |           1      5.26%     89.47% |           1      5.26%     94.74% |           1      5.26%    100.00% |           0      0.00%    100.00% |           0      0.00%    100.00% |           0      0.00%    100.00% |           0      0.00%    100.00% |           0      0.00%    100.00% |           0      0.00%    100.00% |           0      0.00%    100.00% |           0      0.00%    100.00% |           0      0.00%    100.00% |           0      0.00%    100.00% |           0      0.00%    100.00% |           0      0.00%    100.00% |           0      0.00%    100.00%
system.ruby.L2Cache_Controller.MT_SB.Unblock::total           19                      
system.ruby.SimicsNetworkPortInterface_Controller.MessageSend |       38069     12.03%     12.03% |      158263     50.00%     62.03% |       15154      4.79%     66.81% |       16392      5.18%     71.99% |       14809      4.68%     76.67% |       16191      5.12%     81.79% |       14842      4.69%     86.48% |       16199      5.12%     91.59% |       12889      4.07%     95.67% |       13718      4.33%    100.00% |           0      0.00%    100.00% |           0      0.00%    100.00% |           0      0.00%    100.00% |           0      0.00%    100.00% |           0      0.00%    100.00% |           0      0.00%    100.00% |           0      0.00%    100.00% |           0      0.00%    100.00% |           0      0.00%    100.00% |           0      0.00%    100.00% |           0      0.00%    100.00% |           0      0.00%    100.00% |           0      0.00%    100.00% |           0      0.00%    100.00% |           0      0.00%    100.00% |           0      0.00%    100.00% |           0      0.00%    100.00% |           0      0.00%    100.00% |           0      0.00%    100.00% |           0      0.00%    100.00% |           0      0.00%    100.00% |           0      0.00%    100.00%
system.ruby.SimicsNetworkPortInterface_Controller.MessageSend::total       316526                      
system.ruby.SimicsNetworkPortInterface_Controller.MessageRecv |       38069     12.03%     12.03% |      158263     50.00%     62.03% |       15154      4.79%     66.81% |       16392      5.18%     71.99% |       14809      4.68%     76.67% |       16191      5.12%     81.79% |       14842      4.69%     86.48% |       16199      5.12%     91.59% |       12889      4.07%     95.67% |       13718      4.33%    100.00% |           0      0.00%    100.00% |           0      0.00%    100.00% |           0      0.00%    100.00% |           0      0.00%    100.00% |           0      0.00%    100.00% |           0      0.00%    100.00% |           0      0.00%    100.00% |           0      0.00%    100.00% |           0      0.00%    100.00% |           0      0.00%    100.00% |           0      0.00%    100.00% |           0      0.00%    100.00% |           0      0.00%    100.00% |           0      0.00%    100.00% |           0      0.00%    100.00% |           0      0.00%    100.00% |           0      0.00%    100.00% |           0      0.00%    100.00% |           0      0.00%    100.00% |           0      0.00%    100.00% |           0      0.00%    100.00% |           0      0.00%    100.00%
system.ruby.SimicsNetworkPortInterface_Controller.MessageRecv::total       316526                      
system.ruby.SimicsNetworkPortInterface_Controller.A.MessageSend |       38069     12.03%     12.03% |      158263     50.00%     62.03% |       15154      4.79%     66.81% |       16392      5.18%     71.99% |       14809      4.68%     76.67% |       16191      5.12%     81.79% |       14842      4.69%     86.48% |       16199      5.12%     91.59% |       12889      4.07%     95.67% |       13718      4.33%    100.00% |           0      0.00%    100.00% |           0      0.00%    100.00% |           0      0.00%    100.00% |           0      0.00%    100.00% |           0      0.00%    100.00% |           0      0.00%    100.00% |           0      0.00%    100.00% |           0      0.00%    100.00% |           0      0.00%    100.00% |           0      0.00%    100.00% |           0      0.00%    100.00% |           0      0.00%    100.00% |           0      0.00%    100.00% |           0      0.00%    100.00% |           0      0.00%    100.00% |           0      0.00%    100.00% |           0      0.00%    100.00% |           0      0.00%    100.00% |           0      0.00%    100.00% |           0      0.00%    100.00% |           0      0.00%    100.00% |           0      0.00%    100.00%
system.ruby.SimicsNetworkPortInterface_Controller.A.MessageSend::total       316526                      
system.ruby.SimicsNetworkPortInterface_Controller.A.MessageRecv |       38069     12.03%     12.03% |      158263     50.00%     62.03% |       15154      4.79%     66.81% |       16392      5.18%     71.99% |       14809      4.68%     76.67% |       16191      5.12%     81.79% |       14842      4.69%     86.48% |       16199      5.12%     91.59% |       12889      4.07%     95.67% |       13718      4.33%    100.00% |           0      0.00%    100.00% |           0      0.00%    100.00% |           0      0.00%    100.00% |           0      0.00%    100.00% |           0      0.00%    100.00% |           0      0.00%    100.00% |           0      0.00%    100.00% |           0      0.00%    100.00% |           0      0.00%    100.00% |           0      0.00%    100.00% |           0      0.00%    100.00% |           0      0.00%    100.00% |           0      0.00%    100.00% |           0      0.00%    100.00% |           0      0.00%    100.00% |           0      0.00%    100.00% |           0      0.00%    100.00% |           0      0.00%    100.00% |           0      0.00%    100.00% |           0      0.00%    100.00% |           0      0.00%    100.00% |           0      0.00%    100.00%
system.ruby.SimicsNetworkPortInterface_Controller.A.MessageRecv::total       316526                      
system.switch_cpus.kern.inst.arm                    0                       # number of arm instructions executed
system.switch_cpus.kern.inst.quiesce                0                       # number of quiesce instructions executed

---------- End Simulation Statistics   ----------
