
---------- Begin Simulation Statistics ----------
sim_seconds                                  0.153884                       # Number of seconds simulated
sim_ticks                                153883741000                       # Number of ticks simulated
final_tick                               5330051819500                       # Number of ticks from beginning of simulation (restored from checkpoints and never reset)
sim_freq                                 1000000000000                       # Frequency of simulated ticks
host_inst_rate                                  56456                       # Simulator instruction rate (inst/s)
host_op_rate                                   107523                       # Simulator op (including micro ops) rate (op/s)
host_tick_rate                              134725570                       # Simulator tick rate (ticks/s)
host_mem_usage                                4105444                       # Number of bytes of host memory used
host_seconds                                  1142.20                       # Real time elapsed on the host
sim_insts                                    64484187                       # Number of instructions simulated
sim_ops                                     122813434                       # Number of ops (including micro ops) simulated
system.voltage_domain.voltage                       1                       # Voltage in Volts
system.clk_domain.clock                           500                       # Clock period in ticks
system.mem_ctrls0.bytes_read::ruby.dir_cntrl0     25345536                       # Number of bytes read from this memory
system.mem_ctrls0.bytes_read::total          25345536                       # Number of bytes read from this memory
system.mem_ctrls0.bytes_written::ruby.dir_cntrl0     21426496                       # Number of bytes written to this memory
system.mem_ctrls0.bytes_written::total       21426496                       # Number of bytes written to this memory
system.mem_ctrls0.num_reads::ruby.dir_cntrl0       396024                       # Number of read requests responded to by this memory
system.mem_ctrls0.num_reads::total             396024                       # Number of read requests responded to by this memory
system.mem_ctrls0.num_writes::ruby.dir_cntrl0       334789                       # Number of write requests responded to by this memory
system.mem_ctrls0.num_writes::total            334789                       # Number of write requests responded to by this memory
system.mem_ctrls0.bw_read::ruby.dir_cntrl0    164705744                       # Total read bandwidth from this memory (bytes/s)
system.mem_ctrls0.bw_read::total            164705744                       # Total read bandwidth from this memory (bytes/s)
system.mem_ctrls0.bw_write::ruby.dir_cntrl0    139238206                       # Write bandwidth from this memory (bytes/s)
system.mem_ctrls0.bw_write::total           139238206                       # Write bandwidth from this memory (bytes/s)
system.mem_ctrls0.bw_total::ruby.dir_cntrl0    303943949                       # Total bandwidth to/from this memory (bytes/s)
system.mem_ctrls0.bw_total::total           303943949                       # Total bandwidth to/from this memory (bytes/s)
system.mem_ctrls0.readReqs                     396025                       # Number of read requests accepted
system.mem_ctrls0.writeReqs                    334789                       # Number of write requests accepted
system.mem_ctrls0.readBursts                   396025                       # Number of DRAM read bursts, including those serviced by the write queue
system.mem_ctrls0.writeBursts                  334789                       # Number of DRAM write bursts, including those merged in the write queue
system.mem_ctrls0.bytesReadDRAM              25344832                       # Total number of bytes read from DRAM
system.mem_ctrls0.bytesReadWrQ                    768                       # Total number of bytes read from write queue
system.mem_ctrls0.bytesWritten               21426240                       # Total number of bytes written to DRAM
system.mem_ctrls0.bytesReadSys               25345600                       # Total read bytes from the system interface side
system.mem_ctrls0.bytesWrittenSys            21426496                       # Total written bytes from the system interface side
system.mem_ctrls0.servicedByWrQ                    12                       # Number of DRAM read bursts serviced by the write queue
system.mem_ctrls0.mergedWrBursts                    0                       # Number of DRAM write bursts merged with an existing one
system.mem_ctrls0.neitherReadNorWriteReqs            0                       # Number of requests that are neither read nor write
system.mem_ctrls0.perBankRdBursts::0            24420                       # Per bank write bursts
system.mem_ctrls0.perBankRdBursts::1            25160                       # Per bank write bursts
system.mem_ctrls0.perBankRdBursts::2            24723                       # Per bank write bursts
system.mem_ctrls0.perBankRdBursts::3            25004                       # Per bank write bursts
system.mem_ctrls0.perBankRdBursts::4            24639                       # Per bank write bursts
system.mem_ctrls0.perBankRdBursts::5            25028                       # Per bank write bursts
system.mem_ctrls0.perBankRdBursts::6            25104                       # Per bank write bursts
system.mem_ctrls0.perBankRdBursts::7            24807                       # Per bank write bursts
system.mem_ctrls0.perBankRdBursts::8            24711                       # Per bank write bursts
system.mem_ctrls0.perBankRdBursts::9            24851                       # Per bank write bursts
system.mem_ctrls0.perBankRdBursts::10           24658                       # Per bank write bursts
system.mem_ctrls0.perBankRdBursts::11           25188                       # Per bank write bursts
system.mem_ctrls0.perBankRdBursts::12           24387                       # Per bank write bursts
system.mem_ctrls0.perBankRdBursts::13           24309                       # Per bank write bursts
system.mem_ctrls0.perBankRdBursts::14           24472                       # Per bank write bursts
system.mem_ctrls0.perBankRdBursts::15           24552                       # Per bank write bursts
system.mem_ctrls0.perBankWrBursts::0            20952                       # Per bank write bursts
system.mem_ctrls0.perBankWrBursts::1            20829                       # Per bank write bursts
system.mem_ctrls0.perBankWrBursts::2            20812                       # Per bank write bursts
system.mem_ctrls0.perBankWrBursts::3            21106                       # Per bank write bursts
system.mem_ctrls0.perBankWrBursts::4            20764                       # Per bank write bursts
system.mem_ctrls0.perBankWrBursts::5            21068                       # Per bank write bursts
system.mem_ctrls0.perBankWrBursts::6            21109                       # Per bank write bursts
system.mem_ctrls0.perBankWrBursts::7            20984                       # Per bank write bursts
system.mem_ctrls0.perBankWrBursts::8            21158                       # Per bank write bursts
system.mem_ctrls0.perBankWrBursts::9            20937                       # Per bank write bursts
system.mem_ctrls0.perBankWrBursts::10           20870                       # Per bank write bursts
system.mem_ctrls0.perBankWrBursts::11           20912                       # Per bank write bursts
system.mem_ctrls0.perBankWrBursts::12           20627                       # Per bank write bursts
system.mem_ctrls0.perBankWrBursts::13           20895                       # Per bank write bursts
system.mem_ctrls0.perBankWrBursts::14           20953                       # Per bank write bursts
system.mem_ctrls0.perBankWrBursts::15           20809                       # Per bank write bursts
system.mem_ctrls0.numRdRetry                   150529                       # Number of times read queue was full causing retry
system.mem_ctrls0.numWrRetry                    19404                       # Number of times write queue was full causing retry
system.mem_ctrls0.totGap                 153883477000                       # Total gap between requests
system.mem_ctrls0.readPktSize::0                    0                       # Read request sizes (log2)
system.mem_ctrls0.readPktSize::1                    0                       # Read request sizes (log2)
system.mem_ctrls0.readPktSize::2                    0                       # Read request sizes (log2)
system.mem_ctrls0.readPktSize::3                    0                       # Read request sizes (log2)
system.mem_ctrls0.readPktSize::4                    0                       # Read request sizes (log2)
system.mem_ctrls0.readPktSize::5                    0                       # Read request sizes (log2)
system.mem_ctrls0.readPktSize::6               396025                       # Read request sizes (log2)
system.mem_ctrls0.writePktSize::0                   0                       # Write request sizes (log2)
system.mem_ctrls0.writePktSize::1                   0                       # Write request sizes (log2)
system.mem_ctrls0.writePktSize::2                   0                       # Write request sizes (log2)
system.mem_ctrls0.writePktSize::3                   0                       # Write request sizes (log2)
system.mem_ctrls0.writePktSize::4                   0                       # Write request sizes (log2)
system.mem_ctrls0.writePktSize::5                   0                       # Write request sizes (log2)
system.mem_ctrls0.writePktSize::6              334789                       # Write request sizes (log2)
system.mem_ctrls0.rdQLenPdf::0                 204602                       # What read queue length does an incoming req see
system.mem_ctrls0.rdQLenPdf::1                   5928                       # What read queue length does an incoming req see
system.mem_ctrls0.rdQLenPdf::2                   3301                       # What read queue length does an incoming req see
system.mem_ctrls0.rdQLenPdf::3                    819                       # What read queue length does an incoming req see
system.mem_ctrls0.rdQLenPdf::4                    865                       # What read queue length does an incoming req see
system.mem_ctrls0.rdQLenPdf::5                    910                       # What read queue length does an incoming req see
system.mem_ctrls0.rdQLenPdf::6                    915                       # What read queue length does an incoming req see
system.mem_ctrls0.rdQLenPdf::7                    963                       # What read queue length does an incoming req see
system.mem_ctrls0.rdQLenPdf::8                    986                       # What read queue length does an incoming req see
system.mem_ctrls0.rdQLenPdf::9                    947                       # What read queue length does an incoming req see
system.mem_ctrls0.rdQLenPdf::10                   950                       # What read queue length does an incoming req see
system.mem_ctrls0.rdQLenPdf::11                   894                       # What read queue length does an incoming req see
system.mem_ctrls0.rdQLenPdf::12                   879                       # What read queue length does an incoming req see
system.mem_ctrls0.rdQLenPdf::13                   830                       # What read queue length does an incoming req see
system.mem_ctrls0.rdQLenPdf::14                   853                       # What read queue length does an incoming req see
system.mem_ctrls0.rdQLenPdf::15                   798                       # What read queue length does an incoming req see
system.mem_ctrls0.rdQLenPdf::16                   779                       # What read queue length does an incoming req see
system.mem_ctrls0.rdQLenPdf::17                   811                       # What read queue length does an incoming req see
system.mem_ctrls0.rdQLenPdf::18                   774                       # What read queue length does an incoming req see
system.mem_ctrls0.rdQLenPdf::19                   774                       # What read queue length does an incoming req see
system.mem_ctrls0.rdQLenPdf::20                   793                       # What read queue length does an incoming req see
system.mem_ctrls0.rdQLenPdf::21                   767                       # What read queue length does an incoming req see
system.mem_ctrls0.rdQLenPdf::22                   755                       # What read queue length does an incoming req see
system.mem_ctrls0.rdQLenPdf::23                   766                       # What read queue length does an incoming req see
system.mem_ctrls0.rdQLenPdf::24                   775                       # What read queue length does an incoming req see
system.mem_ctrls0.rdQLenPdf::25                   786                       # What read queue length does an incoming req see
system.mem_ctrls0.rdQLenPdf::26                   874                       # What read queue length does an incoming req see
system.mem_ctrls0.rdQLenPdf::27                   914                       # What read queue length does an incoming req see
system.mem_ctrls0.rdQLenPdf::28                  1038                       # What read queue length does an incoming req see
system.mem_ctrls0.rdQLenPdf::29                  1419                       # What read queue length does an incoming req see
system.mem_ctrls0.rdQLenPdf::30                  2520                       # What read queue length does an incoming req see
system.mem_ctrls0.rdQLenPdf::31                156028                       # What read queue length does an incoming req see
system.mem_ctrls0.wrQLenPdf::0                  48501                       # What write queue length does an incoming req see
system.mem_ctrls0.wrQLenPdf::1                  50298                       # What write queue length does an incoming req see
system.mem_ctrls0.wrQLenPdf::2                  51627                       # What write queue length does an incoming req see
system.mem_ctrls0.wrQLenPdf::3                  52158                       # What write queue length does an incoming req see
system.mem_ctrls0.wrQLenPdf::4                  53813                       # What write queue length does an incoming req see
system.mem_ctrls0.wrQLenPdf::5                  16691                       # What write queue length does an incoming req see
system.mem_ctrls0.wrQLenPdf::6                  22140                       # What write queue length does an incoming req see
system.mem_ctrls0.wrQLenPdf::7                  39561                       # What write queue length does an incoming req see
system.mem_ctrls0.bytesPerActivate::samples       250486                       # Bytes accessed per row activation
system.mem_ctrls0.bytesPerActivate::mean   186.718236                       # Bytes accessed per row activation
system.mem_ctrls0.bytesPerActivate::gmean   143.959482                       # Bytes accessed per row activation
system.mem_ctrls0.bytesPerActivate::stdev   141.371437                       # Bytes accessed per row activation
system.mem_ctrls0.bytesPerActivate::0-127        93584     37.36%     37.36% # Bytes accessed per row activation
system.mem_ctrls0.bytesPerActivate::128-255        69080     27.58%     64.94% # Bytes accessed per row activation
system.mem_ctrls0.bytesPerActivate::256-383        70560     28.17%     93.11% # Bytes accessed per row activation
system.mem_ctrls0.bytesPerActivate::384-511         8836      3.53%     96.64% # Bytes accessed per row activation
system.mem_ctrls0.bytesPerActivate::512-639         4703      1.88%     98.51% # Bytes accessed per row activation
system.mem_ctrls0.bytesPerActivate::640-767         1612      0.64%     99.16% # Bytes accessed per row activation
system.mem_ctrls0.bytesPerActivate::768-895          837      0.33%     99.49% # Bytes accessed per row activation
system.mem_ctrls0.bytesPerActivate::896-1023          565      0.23%     99.72% # Bytes accessed per row activation
system.mem_ctrls0.bytesPerActivate::1024-1151          709      0.28%    100.00% # Bytes accessed per row activation
system.mem_ctrls0.bytesPerActivate::total       250486                       # Bytes accessed per row activation
system.mem_ctrls0.rdPerTurnAround::samples        49881                       # Reads before turning the bus around for writes
system.mem_ctrls0.rdPerTurnAround::mean      7.939075                       # Reads before turning the bus around for writes
system.mem_ctrls0.rdPerTurnAround::stdev    18.969225                       # Reads before turning the bus around for writes
system.mem_ctrls0.rdPerTurnAround::0-127        49873     99.98%     99.98% # Reads before turning the bus around for writes
system.mem_ctrls0.rdPerTurnAround::128-255            7      0.01%    100.00% # Reads before turning the bus around for writes
system.mem_ctrls0.rdPerTurnAround::3968-4095            1      0.00%    100.00% # Reads before turning the bus around for writes
system.mem_ctrls0.rdPerTurnAround::total        49881                       # Reads before turning the bus around for writes
system.mem_ctrls0.wrPerTurnAround::samples        49881                       # Writes before turning the bus around for reads
system.mem_ctrls0.wrPerTurnAround::mean      6.711674                       # Writes before turning the bus around for reads
system.mem_ctrls0.wrPerTurnAround::gmean     6.095493                       # Writes before turning the bus around for reads
system.mem_ctrls0.wrPerTurnAround::stdev     3.536853                       # Writes before turning the bus around for reads
system.mem_ctrls0.wrPerTurnAround::4-7          40198     80.59%     80.59% # Writes before turning the bus around for reads
system.mem_ctrls0.wrPerTurnAround::8-11          1596      3.20%     83.79% # Writes before turning the bus around for reads
system.mem_ctrls0.wrPerTurnAround::12-15         5562     11.15%     94.94% # Writes before turning the bus around for reads
system.mem_ctrls0.wrPerTurnAround::16-19         2525      5.06%    100.00% # Writes before turning the bus around for reads
system.mem_ctrls0.wrPerTurnAround::total        49881                       # Writes before turning the bus around for reads
system.mem_ctrls0.totQLat                 69343705278                       # Total ticks spent queuing
system.mem_ctrls0.totMemAccLat            76768949028                       # Total ticks spent from burst creation until serviced by the DRAM
system.mem_ctrls0.totBusLat                1980065000                       # Total ticks spent in databus transfers
system.mem_ctrls0.avgQLat                   175104.62                       # Average queueing delay per DRAM burst
system.mem_ctrls0.avgBusLat                   5000.00                       # Average bus latency per DRAM burst
system.mem_ctrls0.avgMemAccLat              193854.62                       # Average memory access latency per DRAM burst
system.mem_ctrls0.avgRdBW                      164.70                       # Average DRAM read bandwidth in MiByte/s
system.mem_ctrls0.avgWrBW                      139.24                       # Average achieved write bandwidth in MiByte/s
system.mem_ctrls0.avgRdBWSys                   164.71                       # Average system read bandwidth in MiByte/s
system.mem_ctrls0.avgWrBWSys                   139.24                       # Average system write bandwidth in MiByte/s
system.mem_ctrls0.peakBW                     12800.00                       # Theoretical peak bandwidth in MiByte/s
system.mem_ctrls0.busUtil                        2.37                       # Data bus utilization in percentage
system.mem_ctrls0.busUtilRead                    1.29                       # Data bus utilization in percentage for reads
system.mem_ctrls0.busUtilWrite                   1.09                       # Data bus utilization in percentage for writes
system.mem_ctrls0.avgRdQLen                      1.46                       # Average read queue length when enqueuing
system.mem_ctrls0.avgWrQLen                      2.99                       # Average write queue length when enqueuing
system.mem_ctrls0.readRowHits                  279088                       # Number of row buffer hits during reads
system.mem_ctrls0.writeRowHits                 201212                       # Number of row buffer hits during writes
system.mem_ctrls0.readRowHitRate                70.47                       # Row buffer hit rate for reads
system.mem_ctrls0.writeRowHitRate               60.10                       # Row buffer hit rate for writes
system.mem_ctrls0.avgGap                    210564.49                       # Average gap between requests
system.mem_ctrls0.pageHitRate                   65.72                       # Row buffer hit rate, read and write combined
system.mem_ctrls0.memoryStateTime::IDLE   26565825750                       # Time in different power states
system.mem_ctrls0.memoryStateTime::REF     5138380000                       # Time in different power states
system.mem_ctrls0.memoryStateTime::PRE_PDN            0                       # Time in different power states
system.mem_ctrls0.memoryStateTime::ACT   122175726750                       # Time in different power states
system.mem_ctrls0.memoryStateTime::ACT_PDN            0                       # Time in different power states
system.mem_ctrls0.actEnergy::0              949467960                       # Energy for activate commands per rank (pJ)
system.mem_ctrls0.actEnergy::1              944077680                       # Energy for activate commands per rank (pJ)
system.mem_ctrls0.preEnergy::0              518062875                       # Energy for precharge commands per rank (pJ)
system.mem_ctrls0.preEnergy::1              515121750                       # Energy for precharge commands per rank (pJ)
system.mem_ctrls0.readEnergy::0            1551217200                       # Energy for read commands per rank (pJ)
system.mem_ctrls0.readEnergy::1            1537520400                       # Energy for read commands per rank (pJ)
system.mem_ctrls0.writeEnergy::0           1086164640                       # Energy for write commands per rank (pJ)
system.mem_ctrls0.writeEnergy::1           1083144960                       # Energy for write commands per rank (pJ)
system.mem_ctrls0.refreshEnergy::0        10050671280                       # Energy for refresh commands per rank (pJ)
system.mem_ctrls0.refreshEnergy::1        10050671280                       # Energy for refresh commands per rank (pJ)
system.mem_ctrls0.actBackEnergy::0        61160099400                       # Energy for active background per rank (pJ)
system.mem_ctrls0.actBackEnergy::1        60903053910                       # Energy for active background per rank (pJ)
system.mem_ctrls0.preBackEnergy::0        38678741250                       # Energy for precharge background per rank (pJ)
system.mem_ctrls0.preBackEnergy::1        38904219750                       # Energy for precharge background per rank (pJ)
system.mem_ctrls0.totalEnergy::0         113994424605                       # Total energy per rank (pJ)
system.mem_ctrls0.totalEnergy::1         113937809730                       # Total energy per rank (pJ)
system.mem_ctrls0.averagePower::0          740.801175                       # Core power per rank (mW)
system.mem_ctrls0.averagePower::1          740.433259                       # Core power per rank (mW)
system.mem_ctrls1.bytes_read::ruby.dir_cntrl1     24528192                       # Number of bytes read from this memory
system.mem_ctrls1.bytes_read::total          24528192                       # Number of bytes read from this memory
system.mem_ctrls1.bytes_written::ruby.dir_cntrl1     20659072                       # Number of bytes written to this memory
system.mem_ctrls1.bytes_written::total       20659072                       # Number of bytes written to this memory
system.mem_ctrls1.num_reads::ruby.dir_cntrl1       383253                       # Number of read requests responded to by this memory
system.mem_ctrls1.num_reads::total             383253                       # Number of read requests responded to by this memory
system.mem_ctrls1.num_writes::ruby.dir_cntrl1       322798                       # Number of write requests responded to by this memory
system.mem_ctrls1.num_writes::total            322798                       # Number of write requests responded to by this memory
system.mem_ctrls1.bw_read::ruby.dir_cntrl1    159394305                       # Total read bandwidth from this memory (bytes/s)
system.mem_ctrls1.bw_read::total            159394305                       # Total read bandwidth from this memory (bytes/s)
system.mem_ctrls1.bw_write::ruby.dir_cntrl1    134251168                       # Write bandwidth from this memory (bytes/s)
system.mem_ctrls1.bw_write::total           134251168                       # Write bandwidth from this memory (bytes/s)
system.mem_ctrls1.bw_total::ruby.dir_cntrl1    293645474                       # Total bandwidth to/from this memory (bytes/s)
system.mem_ctrls1.bw_total::total           293645474                       # Total bandwidth to/from this memory (bytes/s)
system.mem_ctrls1.readReqs                     383253                       # Number of read requests accepted
system.mem_ctrls1.writeReqs                    322798                       # Number of write requests accepted
system.mem_ctrls1.readBursts                   383253                       # Number of DRAM read bursts, including those serviced by the write queue
system.mem_ctrls1.writeBursts                  322798                       # Number of DRAM write bursts, including those merged in the write queue
system.mem_ctrls1.bytesReadDRAM              24527424                       # Total number of bytes read from DRAM
system.mem_ctrls1.bytesReadWrQ                    768                       # Total number of bytes read from write queue
system.mem_ctrls1.bytesWritten               20659072                       # Total number of bytes written to DRAM
system.mem_ctrls1.bytesReadSys               24528192                       # Total read bytes from the system interface side
system.mem_ctrls1.bytesWrittenSys            20659072                       # Total written bytes from the system interface side
system.mem_ctrls1.servicedByWrQ                    12                       # Number of DRAM read bursts serviced by the write queue
system.mem_ctrls1.mergedWrBursts                    0                       # Number of DRAM write bursts merged with an existing one
system.mem_ctrls1.neitherReadNorWriteReqs            0                       # Number of requests that are neither read nor write
system.mem_ctrls1.perBankRdBursts::0            23652                       # Per bank write bursts
system.mem_ctrls1.perBankRdBursts::1            24354                       # Per bank write bursts
system.mem_ctrls1.perBankRdBursts::2            23921                       # Per bank write bursts
system.mem_ctrls1.perBankRdBursts::3            24204                       # Per bank write bursts
system.mem_ctrls1.perBankRdBursts::4            23868                       # Per bank write bursts
system.mem_ctrls1.perBankRdBursts::5            24240                       # Per bank write bursts
system.mem_ctrls1.perBankRdBursts::6            24300                       # Per bank write bursts
system.mem_ctrls1.perBankRdBursts::7            24042                       # Per bank write bursts
system.mem_ctrls1.perBankRdBursts::8            23915                       # Per bank write bursts
system.mem_ctrls1.perBankRdBursts::9            24043                       # Per bank write bursts
system.mem_ctrls1.perBankRdBursts::10           23830                       # Per bank write bursts
system.mem_ctrls1.perBankRdBursts::11           24403                       # Per bank write bursts
system.mem_ctrls1.perBankRdBursts::12           23594                       # Per bank write bursts
system.mem_ctrls1.perBankRdBursts::13           23501                       # Per bank write bursts
system.mem_ctrls1.perBankRdBursts::14           23598                       # Per bank write bursts
system.mem_ctrls1.perBankRdBursts::15           23776                       # Per bank write bursts
system.mem_ctrls1.perBankWrBursts::0            20203                       # Per bank write bursts
system.mem_ctrls1.perBankWrBursts::1            20098                       # Per bank write bursts
system.mem_ctrls1.perBankWrBursts::2            20076                       # Per bank write bursts
system.mem_ctrls1.perBankWrBursts::3            20366                       # Per bank write bursts
system.mem_ctrls1.perBankWrBursts::4            20026                       # Per bank write bursts
system.mem_ctrls1.perBankWrBursts::5            20333                       # Per bank write bursts
system.mem_ctrls1.perBankWrBursts::6            20350                       # Per bank write bursts
system.mem_ctrls1.perBankWrBursts::7            20226                       # Per bank write bursts
system.mem_ctrls1.perBankWrBursts::8            20404                       # Per bank write bursts
system.mem_ctrls1.perBankWrBursts::9            20183                       # Per bank write bursts
system.mem_ctrls1.perBankWrBursts::10           20119                       # Per bank write bursts
system.mem_ctrls1.perBankWrBursts::11           20169                       # Per bank write bursts
system.mem_ctrls1.perBankWrBursts::12           19885                       # Per bank write bursts
system.mem_ctrls1.perBankWrBursts::13           20143                       # Per bank write bursts
system.mem_ctrls1.perBankWrBursts::14           20148                       # Per bank write bursts
system.mem_ctrls1.perBankWrBursts::15           20069                       # Per bank write bursts
system.mem_ctrls1.numRdRetry                   135031                       # Number of times read queue was full causing retry
system.mem_ctrls1.numWrRetry                    18378                       # Number of times write queue was full causing retry
system.mem_ctrls1.totGap                 153883025000                       # Total gap between requests
system.mem_ctrls1.readPktSize::0                    0                       # Read request sizes (log2)
system.mem_ctrls1.readPktSize::1                    0                       # Read request sizes (log2)
system.mem_ctrls1.readPktSize::2                    0                       # Read request sizes (log2)
system.mem_ctrls1.readPktSize::3                    0                       # Read request sizes (log2)
system.mem_ctrls1.readPktSize::4                    0                       # Read request sizes (log2)
system.mem_ctrls1.readPktSize::5                    0                       # Read request sizes (log2)
system.mem_ctrls1.readPktSize::6               383253                       # Read request sizes (log2)
system.mem_ctrls1.writePktSize::0                   0                       # Write request sizes (log2)
system.mem_ctrls1.writePktSize::1                   0                       # Write request sizes (log2)
system.mem_ctrls1.writePktSize::2                   0                       # Write request sizes (log2)
system.mem_ctrls1.writePktSize::3                   0                       # Write request sizes (log2)
system.mem_ctrls1.writePktSize::4                   0                       # Write request sizes (log2)
system.mem_ctrls1.writePktSize::5                   0                       # Write request sizes (log2)
system.mem_ctrls1.writePktSize::6              322798                       # Write request sizes (log2)
system.mem_ctrls1.rdQLenPdf::0                 200665                       # What read queue length does an incoming req see
system.mem_ctrls1.rdQLenPdf::1                   1822                       # What read queue length does an incoming req see
system.mem_ctrls1.rdQLenPdf::2                   1258                       # What read queue length does an incoming req see
system.mem_ctrls1.rdQLenPdf::3                   1402                       # What read queue length does an incoming req see
system.mem_ctrls1.rdQLenPdf::4                   1553                       # What read queue length does an incoming req see
system.mem_ctrls1.rdQLenPdf::5                   1620                       # What read queue length does an incoming req see
system.mem_ctrls1.rdQLenPdf::6                   1626                       # What read queue length does an incoming req see
system.mem_ctrls1.rdQLenPdf::7                   1557                       # What read queue length does an incoming req see
system.mem_ctrls1.rdQLenPdf::8                   1488                       # What read queue length does an incoming req see
system.mem_ctrls1.rdQLenPdf::9                   1467                       # What read queue length does an incoming req see
system.mem_ctrls1.rdQLenPdf::10                  1412                       # What read queue length does an incoming req see
system.mem_ctrls1.rdQLenPdf::11                  1373                       # What read queue length does an incoming req see
system.mem_ctrls1.rdQLenPdf::12                  1427                       # What read queue length does an incoming req see
system.mem_ctrls1.rdQLenPdf::13                  1375                       # What read queue length does an incoming req see
system.mem_ctrls1.rdQLenPdf::14                  1288                       # What read queue length does an incoming req see
system.mem_ctrls1.rdQLenPdf::15                  1326                       # What read queue length does an incoming req see
system.mem_ctrls1.rdQLenPdf::16                  1253                       # What read queue length does an incoming req see
system.mem_ctrls1.rdQLenPdf::17                  1249                       # What read queue length does an incoming req see
system.mem_ctrls1.rdQLenPdf::18                  1217                       # What read queue length does an incoming req see
system.mem_ctrls1.rdQLenPdf::19                  1220                       # What read queue length does an incoming req see
system.mem_ctrls1.rdQLenPdf::20                  1180                       # What read queue length does an incoming req see
system.mem_ctrls1.rdQLenPdf::21                  1113                       # What read queue length does an incoming req see
system.mem_ctrls1.rdQLenPdf::22                  1103                       # What read queue length does an incoming req see
system.mem_ctrls1.rdQLenPdf::23                  1078                       # What read queue length does an incoming req see
system.mem_ctrls1.rdQLenPdf::24                  1125                       # What read queue length does an incoming req see
system.mem_ctrls1.rdQLenPdf::25                  1152                       # What read queue length does an incoming req see
system.mem_ctrls1.rdQLenPdf::26                  1230                       # What read queue length does an incoming req see
system.mem_ctrls1.rdQLenPdf::27                  1344                       # What read queue length does an incoming req see
system.mem_ctrls1.rdQLenPdf::28                  1446                       # What read queue length does an incoming req see
system.mem_ctrls1.rdQLenPdf::29                  1764                       # What read queue length does an incoming req see
system.mem_ctrls1.rdQLenPdf::30                  2705                       # What read queue length does an incoming req see
system.mem_ctrls1.rdQLenPdf::31                140403                       # What read queue length does an incoming req see
system.mem_ctrls1.wrQLenPdf::0                  46627                       # What write queue length does an incoming req see
system.mem_ctrls1.wrQLenPdf::1                  48556                       # What write queue length does an incoming req see
system.mem_ctrls1.wrQLenPdf::2                  49553                       # What write queue length does an incoming req see
system.mem_ctrls1.wrQLenPdf::3                  50548                       # What write queue length does an incoming req see
system.mem_ctrls1.wrQLenPdf::4                  52239                       # What write queue length does an incoming req see
system.mem_ctrls1.wrQLenPdf::5                  16501                       # What write queue length does an incoming req see
system.mem_ctrls1.wrQLenPdf::6                  21116                       # What write queue length does an incoming req see
system.mem_ctrls1.wrQLenPdf::7                  37658                       # What write queue length does an incoming req see
system.mem_ctrls1.bytesPerActivate::samples       219563                       # Bytes accessed per row activation
system.mem_ctrls1.bytesPerActivate::mean   205.798755                       # Bytes accessed per row activation
system.mem_ctrls1.bytesPerActivate::gmean   162.322387                       # Bytes accessed per row activation
system.mem_ctrls1.bytesPerActivate::stdev   145.410625                       # Bytes accessed per row activation
system.mem_ctrls1.bytesPerActivate::0-127        61849     28.17%     28.17% # Bytes accessed per row activation
system.mem_ctrls1.bytesPerActivate::128-255        68542     31.22%     59.39% # Bytes accessed per row activation
system.mem_ctrls1.bytesPerActivate::256-383        70854     32.27%     91.66% # Bytes accessed per row activation
system.mem_ctrls1.bytesPerActivate::384-511         8949      4.08%     95.73% # Bytes accessed per row activation
system.mem_ctrls1.bytesPerActivate::512-639         5253      2.39%     98.13% # Bytes accessed per row activation
system.mem_ctrls1.bytesPerActivate::640-767         1761      0.80%     98.93% # Bytes accessed per row activation
system.mem_ctrls1.bytesPerActivate::768-895          903      0.41%     99.34% # Bytes accessed per row activation
system.mem_ctrls1.bytesPerActivate::896-1023          648      0.30%     99.63% # Bytes accessed per row activation
system.mem_ctrls1.bytesPerActivate::1024-1151          804      0.37%    100.00% # Bytes accessed per row activation
system.mem_ctrls1.bytesPerActivate::total       219563                       # Bytes accessed per row activation
system.mem_ctrls1.rdPerTurnAround::samples        48099                       # Reads before turning the bus around for writes
system.mem_ctrls1.rdPerTurnAround::mean      7.967754                       # Reads before turning the bus around for writes
system.mem_ctrls1.rdPerTurnAround::stdev    15.638820                       # Reads before turning the bus around for writes
system.mem_ctrls1.rdPerTurnAround::0-127        48093     99.99%     99.99% # Reads before turning the bus around for writes
system.mem_ctrls1.rdPerTurnAround::128-255            4      0.01%    100.00% # Reads before turning the bus around for writes
system.mem_ctrls1.rdPerTurnAround::1152-1279            1      0.00%    100.00% # Reads before turning the bus around for writes
system.mem_ctrls1.rdPerTurnAround::2816-2943            1      0.00%    100.00% # Reads before turning the bus around for writes
system.mem_ctrls1.rdPerTurnAround::total        48099                       # Reads before turning the bus around for writes
system.mem_ctrls1.wrPerTurnAround::samples        48098                       # Writes before turning the bus around for reads
system.mem_ctrls1.wrPerTurnAround::mean      6.711131                       # Writes before turning the bus around for reads
system.mem_ctrls1.wrPerTurnAround::gmean     6.092395                       # Writes before turning the bus around for reads
system.mem_ctrls1.wrPerTurnAround::stdev     3.541639                       # Writes before turning the bus around for reads
system.mem_ctrls1.wrPerTurnAround::4-7          38534     80.12%     80.12% # Writes before turning the bus around for reads
system.mem_ctrls1.wrPerTurnAround::8-11          1853      3.85%     83.97% # Writes before turning the bus around for reads
system.mem_ctrls1.wrPerTurnAround::12-15         5219     10.85%     94.82% # Writes before turning the bus around for reads
system.mem_ctrls1.wrPerTurnAround::16-19         2492      5.18%    100.00% # Writes before turning the bus around for reads
system.mem_ctrls1.wrPerTurnAround::total        48098                       # Writes before turning the bus around for reads
system.mem_ctrls1.totQLat                 64383091117                       # Total ticks spent queuing
system.mem_ctrls1.totMemAccLat            71568859867                       # Total ticks spent from burst creation until serviced by the DRAM
system.mem_ctrls1.totBusLat                1916205000                       # Total ticks spent in databus transfers
system.mem_ctrls1.avgQLat                   167996.36                       # Average queueing delay per DRAM burst
system.mem_ctrls1.avgBusLat                   5000.00                       # Average bus latency per DRAM burst
system.mem_ctrls1.avgMemAccLat              186746.36                       # Average memory access latency per DRAM burst
system.mem_ctrls1.avgRdBW                      159.39                       # Average DRAM read bandwidth in MiByte/s
system.mem_ctrls1.avgWrBW                      134.25                       # Average achieved write bandwidth in MiByte/s
system.mem_ctrls1.avgRdBWSys                   159.39                       # Average system read bandwidth in MiByte/s
system.mem_ctrls1.avgWrBWSys                   134.25                       # Average system write bandwidth in MiByte/s
system.mem_ctrls1.peakBW                     12800.00                       # Theoretical peak bandwidth in MiByte/s
system.mem_ctrls1.busUtil                        2.29                       # Data bus utilization in percentage
system.mem_ctrls1.busUtilRead                    1.25                       # Data bus utilization in percentage for reads
system.mem_ctrls1.busUtilWrite                   1.05                       # Data bus utilization in percentage for writes
system.mem_ctrls1.avgRdQLen                      1.42                       # Average read queue length when enqueuing
system.mem_ctrls1.avgWrQLen                      3.00                       # Average write queue length when enqueuing
system.mem_ctrls1.readRowHits                  276767                       # Number of row buffer hits during reads
system.mem_ctrls1.writeRowHits                 209699                       # Number of row buffer hits during writes
system.mem_ctrls1.readRowHitRate                72.22                       # Row buffer hit rate for reads
system.mem_ctrls1.writeRowHitRate               64.96                       # Row buffer hit rate for writes
system.mem_ctrls1.avgGap                    217948.88                       # Average gap between requests
system.mem_ctrls1.pageHitRate                   68.90                       # Row buffer hit rate, read and write combined
system.mem_ctrls1.memoryStateTime::IDLE   27041993000                       # Time in different power states
system.mem_ctrls1.memoryStateTime::REF     5138380000                       # Time in different power states
system.mem_ctrls1.memoryStateTime::PRE_PDN            0                       # Time in different power states
system.mem_ctrls1.memoryStateTime::ACT   121699662000                       # Time in different power states
system.mem_ctrls1.memoryStateTime::ACT_PDN            0                       # Time in different power states
system.mem_ctrls1.actEnergy::0              832991040                       # Energy for activate commands per rank (pJ)
system.mem_ctrls1.actEnergy::1              826822080                       # Energy for activate commands per rank (pJ)
system.mem_ctrls1.preEnergy::0              454509000                       # Energy for precharge commands per rank (pJ)
system.mem_ctrls1.preEnergy::1              451143000                       # Energy for precharge commands per rank (pJ)
system.mem_ctrls1.readEnergy::0            1502069400                       # Energy for read commands per rank (pJ)
system.mem_ctrls1.readEnergy::1            1487085600                       # Energy for read commands per rank (pJ)
system.mem_ctrls1.writeEnergy::0           1047660480                       # Energy for write commands per rank (pJ)
system.mem_ctrls1.writeEnergy::1           1043966880                       # Energy for write commands per rank (pJ)
system.mem_ctrls1.refreshEnergy::0        10050671280                       # Energy for refresh commands per rank (pJ)
system.mem_ctrls1.refreshEnergy::1        10050671280                       # Energy for refresh commands per rank (pJ)
system.mem_ctrls1.actBackEnergy::0        60127700580                       # Energy for active background per rank (pJ)
system.mem_ctrls1.actBackEnergy::1        59652602730                       # Energy for active background per rank (pJ)
system.mem_ctrls1.preBackEnergy::0        39584354250                       # Energy for precharge background per rank (pJ)
system.mem_ctrls1.preBackEnergy::1        40001106750                       # Energy for precharge background per rank (pJ)
system.mem_ctrls1.totalEnergy::0         113599956030                       # Total energy per rank (pJ)
system.mem_ctrls1.totalEnergy::1         113513398320                       # Total energy per rank (pJ)
system.mem_ctrls1.averagePower::0          738.237692                       # Core power per rank (mW)
system.mem_ctrls1.averagePower::1          737.675190                       # Core power per rank (mW)
system.mem_ctrls2.bytes_read::ruby.dir_cntrl2     24528000                       # Number of bytes read from this memory
system.mem_ctrls2.bytes_read::total          24528000                       # Number of bytes read from this memory
system.mem_ctrls2.bytes_written::ruby.dir_cntrl2     20660480                       # Number of bytes written to this memory
system.mem_ctrls2.bytes_written::total       20660480                       # Number of bytes written to this memory
system.mem_ctrls2.num_reads::ruby.dir_cntrl2       383250                       # Number of read requests responded to by this memory
system.mem_ctrls2.num_reads::total             383250                       # Number of read requests responded to by this memory
system.mem_ctrls2.num_writes::ruby.dir_cntrl2       322820                       # Number of write requests responded to by this memory
system.mem_ctrls2.num_writes::total            322820                       # Number of write requests responded to by this memory
system.mem_ctrls2.bw_read::ruby.dir_cntrl2    159393058                       # Total read bandwidth from this memory (bytes/s)
system.mem_ctrls2.bw_read::total            159393058                       # Total read bandwidth from this memory (bytes/s)
system.mem_ctrls2.bw_write::ruby.dir_cntrl2    134260318                       # Write bandwidth from this memory (bytes/s)
system.mem_ctrls2.bw_write::total           134260318                       # Write bandwidth from this memory (bytes/s)
system.mem_ctrls2.bw_total::ruby.dir_cntrl2    293653376                       # Total bandwidth to/from this memory (bytes/s)
system.mem_ctrls2.bw_total::total           293653376                       # Total bandwidth to/from this memory (bytes/s)
system.mem_ctrls2.readReqs                     383250                       # Number of read requests accepted
system.mem_ctrls2.writeReqs                    322820                       # Number of write requests accepted
system.mem_ctrls2.readBursts                   383250                       # Number of DRAM read bursts, including those serviced by the write queue
system.mem_ctrls2.writeBursts                  322820                       # Number of DRAM write bursts, including those merged in the write queue
system.mem_ctrls2.bytesReadDRAM              24526848                       # Total number of bytes read from DRAM
system.mem_ctrls2.bytesReadWrQ                   1152                       # Total number of bytes read from write queue
system.mem_ctrls2.bytesWritten               20660352                       # Total number of bytes written to DRAM
system.mem_ctrls2.bytesReadSys               24528000                       # Total read bytes from the system interface side
system.mem_ctrls2.bytesWrittenSys            20660480                       # Total written bytes from the system interface side
system.mem_ctrls2.servicedByWrQ                    18                       # Number of DRAM read bursts serviced by the write queue
system.mem_ctrls2.mergedWrBursts                    0                       # Number of DRAM write bursts merged with an existing one
system.mem_ctrls2.neitherReadNorWriteReqs            0                       # Number of requests that are neither read nor write
system.mem_ctrls2.perBankRdBursts::0            23641                       # Per bank write bursts
system.mem_ctrls2.perBankRdBursts::1            24326                       # Per bank write bursts
system.mem_ctrls2.perBankRdBursts::2            23959                       # Per bank write bursts
system.mem_ctrls2.perBankRdBursts::3            24276                       # Per bank write bursts
system.mem_ctrls2.perBankRdBursts::4            23867                       # Per bank write bursts
system.mem_ctrls2.perBankRdBursts::5            24206                       # Per bank write bursts
system.mem_ctrls2.perBankRdBursts::6            24295                       # Per bank write bursts
system.mem_ctrls2.perBankRdBursts::7            24028                       # Per bank write bursts
system.mem_ctrls2.perBankRdBursts::8            23897                       # Per bank write bursts
system.mem_ctrls2.perBankRdBursts::9            24055                       # Per bank write bursts
system.mem_ctrls2.perBankRdBursts::10           23838                       # Per bank write bursts
system.mem_ctrls2.perBankRdBursts::11           24380                       # Per bank write bursts
system.mem_ctrls2.perBankRdBursts::12           23625                       # Per bank write bursts
system.mem_ctrls2.perBankRdBursts::13           23444                       # Per bank write bursts
system.mem_ctrls2.perBankRdBursts::14           23589                       # Per bank write bursts
system.mem_ctrls2.perBankRdBursts::15           23806                       # Per bank write bursts
system.mem_ctrls2.perBankWrBursts::0            20199                       # Per bank write bursts
system.mem_ctrls2.perBankWrBursts::1            20095                       # Per bank write bursts
system.mem_ctrls2.perBankWrBursts::2            20079                       # Per bank write bursts
system.mem_ctrls2.perBankWrBursts::3            20371                       # Per bank write bursts
system.mem_ctrls2.perBankWrBursts::4            20028                       # Per bank write bursts
system.mem_ctrls2.perBankWrBursts::5            20317                       # Per bank write bursts
system.mem_ctrls2.perBankWrBursts::6            20360                       # Per bank write bursts
system.mem_ctrls2.perBankWrBursts::7            20235                       # Per bank write bursts
system.mem_ctrls2.perBankWrBursts::8            20403                       # Per bank write bursts
system.mem_ctrls2.perBankWrBursts::9            20192                       # Per bank write bursts
system.mem_ctrls2.perBankWrBursts::10           20113                       # Per bank write bursts
system.mem_ctrls2.perBankWrBursts::11           20165                       # Per bank write bursts
system.mem_ctrls2.perBankWrBursts::12           19885                       # Per bank write bursts
system.mem_ctrls2.perBankWrBursts::13           20137                       # Per bank write bursts
system.mem_ctrls2.perBankWrBursts::14           20154                       # Per bank write bursts
system.mem_ctrls2.perBankWrBursts::15           20085                       # Per bank write bursts
system.mem_ctrls2.numRdRetry                   135143                       # Number of times read queue was full causing retry
system.mem_ctrls2.numWrRetry                    18604                       # Number of times write queue was full causing retry
system.mem_ctrls2.totGap                 153882695500                       # Total gap between requests
system.mem_ctrls2.readPktSize::0                    0                       # Read request sizes (log2)
system.mem_ctrls2.readPktSize::1                    0                       # Read request sizes (log2)
system.mem_ctrls2.readPktSize::2                    0                       # Read request sizes (log2)
system.mem_ctrls2.readPktSize::3                    0                       # Read request sizes (log2)
system.mem_ctrls2.readPktSize::4                    0                       # Read request sizes (log2)
system.mem_ctrls2.readPktSize::5                    0                       # Read request sizes (log2)
system.mem_ctrls2.readPktSize::6               383250                       # Read request sizes (log2)
system.mem_ctrls2.writePktSize::0                   0                       # Write request sizes (log2)
system.mem_ctrls2.writePktSize::1                   0                       # Write request sizes (log2)
system.mem_ctrls2.writePktSize::2                   0                       # Write request sizes (log2)
system.mem_ctrls2.writePktSize::3                   0                       # Write request sizes (log2)
system.mem_ctrls2.writePktSize::4                   0                       # Write request sizes (log2)
system.mem_ctrls2.writePktSize::5                   0                       # Write request sizes (log2)
system.mem_ctrls2.writePktSize::6              322820                       # Write request sizes (log2)
system.mem_ctrls2.rdQLenPdf::0                 200891                       # What read queue length does an incoming req see
system.mem_ctrls2.rdQLenPdf::1                   1678                       # What read queue length does an incoming req see
system.mem_ctrls2.rdQLenPdf::2                   1356                       # What read queue length does an incoming req see
system.mem_ctrls2.rdQLenPdf::3                   1432                       # What read queue length does an incoming req see
system.mem_ctrls2.rdQLenPdf::4                   1503                       # What read queue length does an incoming req see
system.mem_ctrls2.rdQLenPdf::5                   1583                       # What read queue length does an incoming req see
system.mem_ctrls2.rdQLenPdf::6                   1492                       # What read queue length does an incoming req see
system.mem_ctrls2.rdQLenPdf::7                   1548                       # What read queue length does an incoming req see
system.mem_ctrls2.rdQLenPdf::8                   1530                       # What read queue length does an incoming req see
system.mem_ctrls2.rdQLenPdf::9                   1482                       # What read queue length does an incoming req see
system.mem_ctrls2.rdQLenPdf::10                  1478                       # What read queue length does an incoming req see
system.mem_ctrls2.rdQLenPdf::11                  1436                       # What read queue length does an incoming req see
system.mem_ctrls2.rdQLenPdf::12                  1366                       # What read queue length does an incoming req see
system.mem_ctrls2.rdQLenPdf::13                  1306                       # What read queue length does an incoming req see
system.mem_ctrls2.rdQLenPdf::14                  1348                       # What read queue length does an incoming req see
system.mem_ctrls2.rdQLenPdf::15                  1320                       # What read queue length does an incoming req see
system.mem_ctrls2.rdQLenPdf::16                  1181                       # What read queue length does an incoming req see
system.mem_ctrls2.rdQLenPdf::17                  1152                       # What read queue length does an incoming req see
system.mem_ctrls2.rdQLenPdf::18                  1169                       # What read queue length does an incoming req see
system.mem_ctrls2.rdQLenPdf::19                  1148                       # What read queue length does an incoming req see
system.mem_ctrls2.rdQLenPdf::20                  1154                       # What read queue length does an incoming req see
system.mem_ctrls2.rdQLenPdf::21                  1069                       # What read queue length does an incoming req see
system.mem_ctrls2.rdQLenPdf::22                  1054                       # What read queue length does an incoming req see
system.mem_ctrls2.rdQLenPdf::23                  1129                       # What read queue length does an incoming req see
system.mem_ctrls2.rdQLenPdf::24                  1104                       # What read queue length does an incoming req see
system.mem_ctrls2.rdQLenPdf::25                  1140                       # What read queue length does an incoming req see
system.mem_ctrls2.rdQLenPdf::26                  1188                       # What read queue length does an incoming req see
system.mem_ctrls2.rdQLenPdf::27                  1334                       # What read queue length does an incoming req see
system.mem_ctrls2.rdQLenPdf::28                  1502                       # What read queue length does an incoming req see
system.mem_ctrls2.rdQLenPdf::29                  1812                       # What read queue length does an incoming req see
system.mem_ctrls2.rdQLenPdf::30                  2755                       # What read queue length does an incoming req see
system.mem_ctrls2.rdQLenPdf::31                140592                       # What read queue length does an incoming req see
system.mem_ctrls2.wrQLenPdf::0                  46638                       # What write queue length does an incoming req see
system.mem_ctrls2.wrQLenPdf::1                  48541                       # What write queue length does an incoming req see
system.mem_ctrls2.wrQLenPdf::2                  49551                       # What write queue length does an incoming req see
system.mem_ctrls2.wrQLenPdf::3                  50566                       # What write queue length does an incoming req see
system.mem_ctrls2.wrQLenPdf::4                  52262                       # What write queue length does an incoming req see
system.mem_ctrls2.wrQLenPdf::5                  16421                       # What write queue length does an incoming req see
system.mem_ctrls2.wrQLenPdf::6                  21079                       # What write queue length does an incoming req see
system.mem_ctrls2.wrQLenPdf::7                  37762                       # What write queue length does an incoming req see
system.mem_ctrls2.bytesPerActivate::samples       218569                       # Bytes accessed per row activation
system.mem_ctrls2.bytesPerActivate::mean   206.737900                       # Bytes accessed per row activation
system.mem_ctrls2.bytesPerActivate::gmean   163.224599                       # Bytes accessed per row activation
system.mem_ctrls2.bytesPerActivate::stdev   145.311246                       # Bytes accessed per row activation
system.mem_ctrls2.bytesPerActivate::0-127        60980     27.90%     27.90% # Bytes accessed per row activation
system.mem_ctrls2.bytesPerActivate::128-255        67593     30.93%     58.82% # Bytes accessed per row activation
system.mem_ctrls2.bytesPerActivate::256-383        71479     32.70%     91.53% # Bytes accessed per row activation
system.mem_ctrls2.bytesPerActivate::384-511         9005      4.12%     95.65% # Bytes accessed per row activation
system.mem_ctrls2.bytesPerActivate::512-639         5457      2.50%     98.14% # Bytes accessed per row activation
system.mem_ctrls2.bytesPerActivate::640-767         1755      0.80%     98.95% # Bytes accessed per row activation
system.mem_ctrls2.bytesPerActivate::768-895          865      0.40%     99.34% # Bytes accessed per row activation
system.mem_ctrls2.bytesPerActivate::896-1023          603      0.28%     99.62% # Bytes accessed per row activation
system.mem_ctrls2.bytesPerActivate::1024-1151          832      0.38%    100.00% # Bytes accessed per row activation
system.mem_ctrls2.bytesPerActivate::total       218569                       # Bytes accessed per row activation
system.mem_ctrls2.rdPerTurnAround::samples        48116                       # Reads before turning the bus around for writes
system.mem_ctrls2.rdPerTurnAround::mean      7.964669                       # Reads before turning the bus around for writes
system.mem_ctrls2.rdPerTurnAround::stdev    15.682430                       # Reads before turning the bus around for writes
system.mem_ctrls2.rdPerTurnAround::0-127        48110     99.99%     99.99% # Reads before turning the bus around for writes
system.mem_ctrls2.rdPerTurnAround::128-255            4      0.01%    100.00% # Reads before turning the bus around for writes
system.mem_ctrls2.rdPerTurnAround::1152-1279            1      0.00%    100.00% # Reads before turning the bus around for writes
system.mem_ctrls2.rdPerTurnAround::2816-2943            1      0.00%    100.00% # Reads before turning the bus around for writes
system.mem_ctrls2.rdPerTurnAround::total        48116                       # Reads before turning the bus around for writes
system.mem_ctrls2.wrPerTurnAround::samples        48116                       # Writes before turning the bus around for reads
system.mem_ctrls2.wrPerTurnAround::mean      6.709161                       # Writes before turning the bus around for reads
system.mem_ctrls2.wrPerTurnAround::gmean     6.090723                       # Writes before turning the bus around for reads
system.mem_ctrls2.wrPerTurnAround::stdev     3.541773                       # Writes before turning the bus around for reads
system.mem_ctrls2.wrPerTurnAround::4-7          38574     80.17%     80.17% # Writes before turning the bus around for reads
system.mem_ctrls2.wrPerTurnAround::8-11          1807      3.76%     83.92% # Writes before turning the bus around for reads
system.mem_ctrls2.wrPerTurnAround::12-15         5197     10.80%     94.73% # Writes before turning the bus around for reads
system.mem_ctrls2.wrPerTurnAround::16-19         2538      5.27%    100.00% # Writes before turning the bus around for reads
system.mem_ctrls2.wrPerTurnAround::total        48116                       # Writes before turning the bus around for reads
system.mem_ctrls2.totQLat                 64349811426                       # Total ticks spent queuing
system.mem_ctrls2.totMemAccLat            71535411426                       # Total ticks spent from burst creation until serviced by the DRAM
system.mem_ctrls2.totBusLat                1916160000                       # Total ticks spent in databus transfers
system.mem_ctrls2.avgQLat                   167913.46                       # Average queueing delay per DRAM burst
system.mem_ctrls2.avgBusLat                   5000.00                       # Average bus latency per DRAM burst
system.mem_ctrls2.avgMemAccLat              186663.46                       # Average memory access latency per DRAM burst
system.mem_ctrls2.avgRdBW                      159.39                       # Average DRAM read bandwidth in MiByte/s
system.mem_ctrls2.avgWrBW                      134.26                       # Average achieved write bandwidth in MiByte/s
system.mem_ctrls2.avgRdBWSys                   159.39                       # Average system read bandwidth in MiByte/s
system.mem_ctrls2.avgWrBWSys                   134.26                       # Average system write bandwidth in MiByte/s
system.mem_ctrls2.peakBW                     12800.00                       # Theoretical peak bandwidth in MiByte/s
system.mem_ctrls2.busUtil                        2.29                       # Data bus utilization in percentage
system.mem_ctrls2.busUtilRead                    1.25                       # Data bus utilization in percentage for reads
system.mem_ctrls2.busUtilWrite                   1.05                       # Data bus utilization in percentage for writes
system.mem_ctrls2.avgRdQLen                      1.42                       # Average read queue length when enqueuing
system.mem_ctrls2.avgWrQLen                      3.02                       # Average write queue length when enqueuing
system.mem_ctrls2.readRowHits                  277146                       # Number of row buffer hits during reads
system.mem_ctrls2.writeRowHits                 210325                       # Number of row buffer hits during writes
system.mem_ctrls2.readRowHitRate                72.32                       # Row buffer hit rate for reads
system.mem_ctrls2.writeRowHitRate               65.15                       # Row buffer hit rate for writes
system.mem_ctrls2.avgGap                    217942.55                       # Average gap between requests
system.mem_ctrls2.pageHitRate                   69.04                       # Row buffer hit rate, read and write combined
system.mem_ctrls2.memoryStateTime::IDLE   27138820250                       # Time in different power states
system.mem_ctrls2.memoryStateTime::REF     5138380000                       # Time in different power states
system.mem_ctrls2.memoryStateTime::PRE_PDN            0                       # Time in different power states
system.mem_ctrls2.memoryStateTime::ACT   121602940750                       # Time in different power states
system.mem_ctrls2.memoryStateTime::ACT_PDN            0                       # Time in different power states
system.mem_ctrls2.actEnergy::0              830972520                       # Energy for activate commands per rank (pJ)
system.mem_ctrls2.actEnergy::1              821333520                       # Energy for activate commands per rank (pJ)
system.mem_ctrls2.preEnergy::0              453407625                       # Energy for precharge commands per rank (pJ)
system.mem_ctrls2.preEnergy::1              448148250                       # Energy for precharge commands per rank (pJ)
system.mem_ctrls2.readEnergy::0            1502217600                       # Energy for read commands per rank (pJ)
system.mem_ctrls2.readEnergy::1            1486906200                       # Energy for read commands per rank (pJ)
system.mem_ctrls2.writeEnergy::0           1047679920                       # Energy for write commands per rank (pJ)
system.mem_ctrls2.writeEnergy::1           1044109440                       # Energy for write commands per rank (pJ)
system.mem_ctrls2.refreshEnergy::0        10050671280                       # Energy for refresh commands per rank (pJ)
system.mem_ctrls2.refreshEnergy::1        10050671280                       # Energy for refresh commands per rank (pJ)
system.mem_ctrls2.actBackEnergy::0        59705461395                       # Energy for active background per rank (pJ)
system.mem_ctrls2.actBackEnergy::1        59242653315                       # Energy for active background per rank (pJ)
system.mem_ctrls2.preBackEnergy::0        39954739500                       # Energy for precharge background per rank (pJ)
system.mem_ctrls2.preBackEnergy::1        40360711500                       # Energy for precharge background per rank (pJ)
system.mem_ctrls2.totalEnergy::0         113545149840                       # Total energy per rank (pJ)
system.mem_ctrls2.totalEnergy::1         113454533505                       # Total energy per rank (pJ)
system.mem_ctrls2.averagePower::0          737.881530                       # Core power per rank (mW)
system.mem_ctrls2.averagePower::1          737.292653                       # Core power per rank (mW)
system.mem_ctrls3.bytes_read::ruby.dir_cntrl3     24507648                       # Number of bytes read from this memory
system.mem_ctrls3.bytes_read::total          24507648                       # Number of bytes read from this memory
system.mem_ctrls3.bytes_written::ruby.dir_cntrl3     20658432                       # Number of bytes written to this memory
system.mem_ctrls3.bytes_written::total       20658432                       # Number of bytes written to this memory
system.mem_ctrls3.num_reads::ruby.dir_cntrl3       382932                       # Number of read requests responded to by this memory
system.mem_ctrls3.num_reads::total             382932                       # Number of read requests responded to by this memory
system.mem_ctrls3.num_writes::ruby.dir_cntrl3       322788                       # Number of write requests responded to by this memory
system.mem_ctrls3.num_writes::total            322788                       # Number of write requests responded to by this memory
system.mem_ctrls3.bw_read::ruby.dir_cntrl3    159260802                       # Total read bandwidth from this memory (bytes/s)
system.mem_ctrls3.bw_read::total            159260802                       # Total read bandwidth from this memory (bytes/s)
system.mem_ctrls3.bw_write::ruby.dir_cntrl3    134247009                       # Write bandwidth from this memory (bytes/s)
system.mem_ctrls3.bw_write::total           134247009                       # Write bandwidth from this memory (bytes/s)
system.mem_ctrls3.bw_total::ruby.dir_cntrl3    293507811                       # Total bandwidth to/from this memory (bytes/s)
system.mem_ctrls3.bw_total::total           293507811                       # Total bandwidth to/from this memory (bytes/s)
system.mem_ctrls3.readReqs                     382932                       # Number of read requests accepted
system.mem_ctrls3.writeReqs                    322788                       # Number of write requests accepted
system.mem_ctrls3.readBursts                   382932                       # Number of DRAM read bursts, including those serviced by the write queue
system.mem_ctrls3.writeBursts                  322788                       # Number of DRAM write bursts, including those merged in the write queue
system.mem_ctrls3.bytesReadDRAM              24507008                       # Total number of bytes read from DRAM
system.mem_ctrls3.bytesReadWrQ                    640                       # Total number of bytes read from write queue
system.mem_ctrls3.bytesWritten               20658368                       # Total number of bytes written to DRAM
system.mem_ctrls3.bytesReadSys               24507648                       # Total read bytes from the system interface side
system.mem_ctrls3.bytesWrittenSys            20658432                       # Total written bytes from the system interface side
system.mem_ctrls3.servicedByWrQ                    10                       # Number of DRAM read bursts serviced by the write queue
system.mem_ctrls3.mergedWrBursts                    0                       # Number of DRAM write bursts merged with an existing one
system.mem_ctrls3.neitherReadNorWriteReqs            0                       # Number of requests that are neither read nor write
system.mem_ctrls3.perBankRdBursts::0            23630                       # Per bank write bursts
system.mem_ctrls3.perBankRdBursts::1            24327                       # Per bank write bursts
system.mem_ctrls3.perBankRdBursts::2            23837                       # Per bank write bursts
system.mem_ctrls3.perBankRdBursts::3            24239                       # Per bank write bursts
system.mem_ctrls3.perBankRdBursts::4            23815                       # Per bank write bursts
system.mem_ctrls3.perBankRdBursts::5            24210                       # Per bank write bursts
system.mem_ctrls3.perBankRdBursts::6            24294                       # Per bank write bursts
system.mem_ctrls3.perBankRdBursts::7            24030                       # Per bank write bursts
system.mem_ctrls3.perBankRdBursts::8            23882                       # Per bank write bursts
system.mem_ctrls3.perBankRdBursts::9            24031                       # Per bank write bursts
system.mem_ctrls3.perBankRdBursts::10           23901                       # Per bank write bursts
system.mem_ctrls3.perBankRdBursts::11           24331                       # Per bank write bursts
system.mem_ctrls3.perBankRdBursts::12           23558                       # Per bank write bursts
system.mem_ctrls3.perBankRdBursts::13           23453                       # Per bank write bursts
system.mem_ctrls3.perBankRdBursts::14           23607                       # Per bank write bursts
system.mem_ctrls3.perBankRdBursts::15           23777                       # Per bank write bursts
system.mem_ctrls3.perBankWrBursts::0            20198                       # Per bank write bursts
system.mem_ctrls3.perBankWrBursts::1            20091                       # Per bank write bursts
system.mem_ctrls3.perBankWrBursts::2            20083                       # Per bank write bursts
system.mem_ctrls3.perBankWrBursts::3            20359                       # Per bank write bursts
system.mem_ctrls3.perBankWrBursts::4            20021                       # Per bank write bursts
system.mem_ctrls3.perBankWrBursts::5            20320                       # Per bank write bursts
system.mem_ctrls3.perBankWrBursts::6            20360                       # Per bank write bursts
system.mem_ctrls3.perBankWrBursts::7            20223                       # Per bank write bursts
system.mem_ctrls3.perBankWrBursts::8            20401                       # Per bank write bursts
system.mem_ctrls3.perBankWrBursts::9            20190                       # Per bank write bursts
system.mem_ctrls3.perBankWrBursts::10           20116                       # Per bank write bursts
system.mem_ctrls3.perBankWrBursts::11           20176                       # Per bank write bursts
system.mem_ctrls3.perBankWrBursts::12           19888                       # Per bank write bursts
system.mem_ctrls3.perBankWrBursts::13           20143                       # Per bank write bursts
system.mem_ctrls3.perBankWrBursts::14           20155                       # Per bank write bursts
system.mem_ctrls3.perBankWrBursts::15           20063                       # Per bank write bursts
system.mem_ctrls3.numRdRetry                   135598                       # Number of times read queue was full causing retry
system.mem_ctrls3.numWrRetry                    18277                       # Number of times write queue was full causing retry
system.mem_ctrls3.totGap                 153882616000                       # Total gap between requests
system.mem_ctrls3.readPktSize::0                    0                       # Read request sizes (log2)
system.mem_ctrls3.readPktSize::1                    0                       # Read request sizes (log2)
system.mem_ctrls3.readPktSize::2                    0                       # Read request sizes (log2)
system.mem_ctrls3.readPktSize::3                    0                       # Read request sizes (log2)
system.mem_ctrls3.readPktSize::4                    0                       # Read request sizes (log2)
system.mem_ctrls3.readPktSize::5                    0                       # Read request sizes (log2)
system.mem_ctrls3.readPktSize::6               382932                       # Read request sizes (log2)
system.mem_ctrls3.writePktSize::0                   0                       # Write request sizes (log2)
system.mem_ctrls3.writePktSize::1                   0                       # Write request sizes (log2)
system.mem_ctrls3.writePktSize::2                   0                       # Write request sizes (log2)
system.mem_ctrls3.writePktSize::3                   0                       # Write request sizes (log2)
system.mem_ctrls3.writePktSize::4                   0                       # Write request sizes (log2)
system.mem_ctrls3.writePktSize::5                   0                       # Write request sizes (log2)
system.mem_ctrls3.writePktSize::6              322788                       # Write request sizes (log2)
system.mem_ctrls3.rdQLenPdf::0                 200459                       # What read queue length does an incoming req see
system.mem_ctrls3.rdQLenPdf::1                   1718                       # What read queue length does an incoming req see
system.mem_ctrls3.rdQLenPdf::2                   1392                       # What read queue length does an incoming req see
system.mem_ctrls3.rdQLenPdf::3                   1496                       # What read queue length does an incoming req see
system.mem_ctrls3.rdQLenPdf::4                   1588                       # What read queue length does an incoming req see
system.mem_ctrls3.rdQLenPdf::5                   1574                       # What read queue length does an incoming req see
system.mem_ctrls3.rdQLenPdf::6                   1612                       # What read queue length does an incoming req see
system.mem_ctrls3.rdQLenPdf::7                   1515                       # What read queue length does an incoming req see
system.mem_ctrls3.rdQLenPdf::8                   1457                       # What read queue length does an incoming req see
system.mem_ctrls3.rdQLenPdf::9                   1464                       # What read queue length does an incoming req see
system.mem_ctrls3.rdQLenPdf::10                  1379                       # What read queue length does an incoming req see
system.mem_ctrls3.rdQLenPdf::11                  1371                       # What read queue length does an incoming req see
system.mem_ctrls3.rdQLenPdf::12                  1305                       # What read queue length does an incoming req see
system.mem_ctrls3.rdQLenPdf::13                  1246                       # What read queue length does an incoming req see
system.mem_ctrls3.rdQLenPdf::14                  1210                       # What read queue length does an incoming req see
system.mem_ctrls3.rdQLenPdf::15                  1176                       # What read queue length does an incoming req see
system.mem_ctrls3.rdQLenPdf::16                  1232                       # What read queue length does an incoming req see
system.mem_ctrls3.rdQLenPdf::17                  1216                       # What read queue length does an incoming req see
system.mem_ctrls3.rdQLenPdf::18                  1181                       # What read queue length does an incoming req see
system.mem_ctrls3.rdQLenPdf::19                  1165                       # What read queue length does an incoming req see
system.mem_ctrls3.rdQLenPdf::20                  1124                       # What read queue length does an incoming req see
system.mem_ctrls3.rdQLenPdf::21                  1109                       # What read queue length does an incoming req see
system.mem_ctrls3.rdQLenPdf::22                  1103                       # What read queue length does an incoming req see
system.mem_ctrls3.rdQLenPdf::23                  1073                       # What read queue length does an incoming req see
system.mem_ctrls3.rdQLenPdf::24                  1060                       # What read queue length does an incoming req see
[...]
system.ruby.L2Cache_Controller.S_I.Ack::total            2                      
system.ruby.L2Cache_Controller.S_I.Ack_all |           0      0.00%      0.00% |           4     28.57%     28.57% |           1      7.14%     35.71% |           1      7.14%     42.86% |           0      0.00%     42.86% |           2     14.29%     57.14% |           0      0.00%     57.14% |           0      0.00%     57.14% |           0      0.00%     57.14% |           1      7.14%     64.29% |           1      7.14%     71.43% |           0      0.00%     71.43% |           0      0.00%     71.43% |           0      0.00%     71.43% |           1      7.14%     78.57% |           0      0.00%     78.57% |           0      0.00%     78.57% |           0      0.00%     78.57% |           1      7.14%     85.71% |           0      0.00%     85.71% |           0      0.00%     85.71% |           0      0.00%     85.71% |           0      0.00%     85.71% |           0      0.00%     85.71% |           1      7.14%     92.86% |           0      0.00%     92.86% |           0      0.00%     92.86% |           0      0.00%     92.86% |           1      7.14%    100.00% |           0      0.00%    100.00% |           0      0.00%    100.00% |           0      0.00%    100.00%
system.ruby.L2Cache_Controller.S_I.Ack_all::total           14                      
system.ruby.L2Cache_Controller.ISS.Mem_Data |       19161      8.07%      8.07% |        7114      3.00%     11.07% |        7113      3.00%     14.07% |        7063      2.98%     17.04% |        7036      2.96%     20.01% |        7016      2.96%     22.97% |        7030      2.96%     25.93% |        7027      2.96%     28.89% |        7068      2.98%     31.87% |        7074      2.98%     34.85% |        7100      2.99%     37.84% |        7023      2.96%     40.80% |        7034      2.96%     43.76% |        7035      2.96%     46.73% |        7034      2.96%     49.69% |        6999      2.95%     52.64% |        7036      2.96%     55.60% |        7010      2.95%     58.56% |        7045      2.97%     61.53% |        7023      2.96%     64.49% |        7017      2.96%     67.44% |        7001      2.95%     70.39% |        7028      2.96%     73.35% |        7020      2.96%     76.31% |        7038      2.97%     79.28% |        7042      2.97%     82.24% |        7022      2.96%     85.20% |        6998      2.95%     88.15% |        7044      2.97%     91.12% |        7026      2.96%     94.08% |        6997      2.95%     97.03% |        7050      2.97%    100.00%
system.ruby.L2Cache_Controller.ISS.Mem_Data::total       237324                      
system.ruby.L2Cache_Controller.IS.Mem_Data |         542      3.26%      3.26% |         470      2.83%      6.09% |         465      2.80%      8.89% |         466      2.80%     11.69% |         512      3.08%     14.78% |         466      2.80%     17.58% |         504      3.03%     20.62% |         529      3.18%     23.80% |         547      3.29%     27.09% |         487      2.93%     30.02% |         533      3.21%     33.23% |         566      3.41%     36.64% |         618      3.72%     40.36% |         561      3.38%     43.73% |         579      3.49%     47.22% |         523      3.15%     50.37% |         533      3.21%     53.58% |         569      3.42%     57.00% |         562      3.38%     60.38% |         509      3.06%     63.45% |         502      3.02%     66.47% |         520      3.13%     69.60% |         480      2.89%     72.49% |         468      2.82%     75.30% |         546      3.29%     78.59% |         592      3.56%     82.15% |         532      3.20%     85.36% |         479      2.88%     88.24% |         489      2.94%     91.18% |         510      3.07%     94.25% |         490      2.95%     97.20% |         465      2.80%    100.00%
system.ruby.L2Cache_Controller.IS.Mem_Data::total        16614                      
system.ruby.L2Cache_Controller.IM.L1_GETX |           2    100.00%    100.00% |           0      0.00%    100.00% |           0      0.00%    100.00% |           0      0.00%    100.00% |           0      0.00%    100.00% |           0      0.00%    100.00% |           0      0.00%    100.00% |           0      0.00%    100.00% |           0      0.00%    100.00% |           0      0.00%    100.00% |           0      0.00%    100.00% |           0      0.00%    100.00% |           0      0.00%    100.00% |           0      0.00%    100.00% |           0      0.00%    100.00% |           0      0.00%    100.00% |           0      0.00%    100.00% |           0      0.00%    100.00% |           0      0.00%    100.00% |           0      0.00%    100.00% |           0      0.00%    100.00% |           0      0.00%    100.00% |           0      0.00%    100.00% |           0      0.00%    100.00% |           0      0.00%    100.00% |           0      0.00%    100.00% |           0      0.00%    100.00% |           0      0.00%    100.00% |           0      0.00%    100.00% |           0      0.00%    100.00% |           0      0.00%    100.00% |           0      0.00%    100.00%
system.ruby.L2Cache_Controller.IM.L1_GETX::total            2                      
system.ruby.L2Cache_Controller.IM.Mem_Data |       40858      3.16%      3.16% |       40329      3.12%      6.29% |       40341      3.12%      9.41% |       40347      3.12%     12.53% |       40353      3.12%     15.66% |       40363      3.13%     18.78% |       40339      3.12%     21.91% |       40336      3.12%     25.03% |       40349      3.12%     28.15% |       40344      3.12%     31.28% |       40329      3.12%     34.40% |       40358      3.12%     37.53% |       40339      3.12%     40.65% |       40338      3.12%     43.77% |       40341      3.12%     46.90% |       40330      3.12%     50.02% |       40352      3.12%     53.14% |       40351      3.12%     56.27% |       40349      3.12%     59.39% |       40345      3.12%     62.52% |       40340      3.12%     65.64% |       40354      3.12%     68.76% |       40339      3.12%     71.89% |       40341      3.12%     75.01% |       40347      3.12%     78.14% |       40345      3.12%     81.26% |       40349      3.12%     84.38% |       40336      3.12%     87.51% |       40336      3.12%     90.63% |       40336      3.12%     93.75% |       40349      3.12%     96.88% |       40331      3.12%    100.00%
system.ruby.L2Cache_Controller.IM.Mem_Data::total      1291494                      
system.ruby.L2Cache_Controller.SS_MB.Exclusive_Unblock |           4      8.89%      8.89% |           6     13.33%     22.22% |           2      4.44%     26.67% |           6     13.33%     40.00% |           1      2.22%     42.22% |           0      0.00%     42.22% |           1      2.22%     44.44% |           0      0.00%     44.44% |           0      0.00%     44.44% |           1      2.22%     46.67% |           1      2.22%     48.89% |           0      0.00%     48.89% |           4      8.89%     57.78% |           0      0.00%     57.78% |           3      6.67%     64.44% |           0      0.00%     64.44% |           0      0.00%     64.44% |           0      0.00%     64.44% |           9     20.00%     84.44% |           0      0.00%     84.44% |           0      0.00%     84.44% |           0      0.00%     84.44% |           0      0.00%     84.44% |           0      0.00%     84.44% |           1      2.22%     86.67% |           2      4.44%     91.11% |           1      2.22%     93.33% |           1      2.22%     95.56% |           0      0.00%     95.56% |           1      2.22%     97.78% |           1      2.22%    100.00% |           0      0.00%    100.00%
system.ruby.L2Cache_Controller.SS_MB.Exclusive_Unblock::total           45                      
system.ruby.L2Cache_Controller.MT_MB.L1_PUTX |           2    100.00%    100.00% |           0      0.00%    100.00% |           0      0.00%    100.00% |           0      0.00%    100.00% |           0      0.00%    100.00% |           0      0.00%    100.00% |           0      0.00%    100.00% |           0      0.00%    100.00% |           0      0.00%    100.00% |           0      0.00%    100.00% |           0      0.00%    100.00% |           0      0.00%    100.00% |           0      0.00%    100.00% |           0      0.00%    100.00% |           0      0.00%    100.00% |           0      0.00%    100.00% |           0      0.00%    100.00% |           0      0.00%    100.00% |           0      0.00%    100.00% |           0      0.00%    100.00% |           0      0.00%    100.00% |           0      0.00%    100.00% |           0      0.00%    100.00% |           0      0.00%    100.00% |           0      0.00%    100.00% |           0      0.00%    100.00% |           0      0.00%    100.00% |           0      0.00%    100.00% |           0      0.00%    100.00% |           0      0.00%    100.00% |           0      0.00%    100.00% |           0      0.00%    100.00%
system.ruby.L2Cache_Controller.MT_MB.L1_PUTX::total            2                      
system.ruby.L2Cache_Controller.MT_MB.Exclusive_Unblock |      172934      8.47%      8.47% |       64310      3.15%     11.62% |       58810      2.88%     14.50% |       58500      2.87%     17.36% |       57846      2.83%     20.20% |       56551      2.77%     22.97% |       55055      2.70%     25.66% |       55346      2.71%     28.37% |       58814      2.88%     31.25% |       57774      2.83%     34.08% |       60710      2.97%     37.06% |       60254      2.95%     40.01% |       56907      2.79%     42.80% |       56838      2.78%     45.58% |       56498      2.77%     48.35% |       56916      2.79%     51.13% |       58956      2.89%     54.02% |       58560      2.87%     56.89% |       59934      2.94%     59.82% |       60924      2.98%     62.81% |       60962      2.99%     65.79% |       63141      3.09%     68.89% |       64376      3.15%     72.04% |       60597      2.97%     75.01% |       61028      2.99%     78.00% |       62518      3.06%     81.06% |       60848      2.98%     84.04% |       61467      3.01%     87.05% |       64144      3.14%     90.19% |       61963      3.03%     93.22% |       70082      3.43%     96.66% |       68260      3.34%    100.00%
system.ruby.L2Cache_Controller.MT_MB.Exclusive_Unblock::total      2041823                      
system.ruby.L2Cache_Controller.MT_IIB.WB_Data |           0      0.00%      0.00% |           0      0.00%      0.00% |           0      0.00%      0.00% |           0      0.00%      0.00% |           0      0.00%      0.00% |           1     50.00%     50.00% |           0      0.00%     50.00% |           0      0.00%     50.00% |           0      0.00%     50.00% |           0      0.00%     50.00% |           0      0.00%     50.00% |           0      0.00%     50.00% |           0      0.00%     50.00% |           0      0.00%     50.00% |           0      0.00%     50.00% |           0      0.00%     50.00% |           0      0.00%     50.00% |           0      0.00%     50.00% |           0      0.00%     50.00% |           0      0.00%     50.00% |           0      0.00%     50.00% |           0      0.00%     50.00% |           0      0.00%     50.00% |           0      0.00%     50.00% |           0      0.00%     50.00% |           0      0.00%     50.00% |           0      0.00%     50.00% |           0      0.00%     50.00% |           1     50.00%    100.00% |           0      0.00%    100.00% |           0      0.00%    100.00% |           0      0.00%    100.00%
system.ruby.L2Cache_Controller.MT_IIB.WB_Data::total            2                      
system.ruby.L2Cache_Controller.MT_IIB.WB_Data_clean |          11    100.00%    100.00% |           0      0.00%    100.00% |           0      0.00%    100.00% |           0      0.00%    100.00% |           0      0.00%    100.00% |           0      0.00%    100.00% |           0      0.00%    100.00% |           0      0.00%    100.00% |           0      0.00%    100.00% |           0      0.00%    100.00% |           0      0.00%    100.00% |           0      0.00%    100.00% |           0      0.00%    100.00% |           0      0.00%    100.00% |           0      0.00%    100.00% |           0      0.00%    100.00% |           0      0.00%    100.00% |           0      0.00%    100.00% |           0      0.00%    100.00% |           0      0.00%    100.00% |           0      0.00%    100.00% |           0      0.00%    100.00% |           0      0.00%    100.00% |           0      0.00%    100.00% |           0      0.00%    100.00% |           0      0.00%    100.00% |           0      0.00%    100.00% |           0      0.00%    100.00% |           0      0.00%    100.00% |           0      0.00%    100.00% |           0      0.00%    100.00% |           0      0.00%    100.00%
system.ruby.L2Cache_Controller.MT_IIB.WB_Data_clean::total           11                      
system.ruby.L2Cache_Controller.MT_SB.Unblock |          11     84.62%     84.62% |           0      0.00%     84.62% |           0      0.00%     84.62% |           0      0.00%     84.62% |           0      0.00%     84.62% |           1      7.69%     92.31% |           0      0.00%     92.31% |           0      0.00%     92.31% |           0      0.00%     92.31% |           0      0.00%     92.31% |           0      0.00%     92.31% |           0      0.00%     92.31% |           0      0.00%     92.31% |           0      0.00%     92.31% |           0      0.00%     92.31% |           0      0.00%     92.31% |           0      0.00%     92.31% |           0      0.00%     92.31% |           0      0.00%     92.31% |           0      0.00%     92.31% |           0      0.00%     92.31% |           0      0.00%     92.31% |           0      0.00%     92.31% |           0      0.00%     92.31% |           0      0.00%     92.31% |           0      0.00%     92.31% |           0      0.00%     92.31% |           0      0.00%     92.31% |           1      7.69%    100.00% |           0      0.00%    100.00% |           0      0.00%    100.00% |           0      0.00%    100.00%
system.ruby.L2Cache_Controller.MT_SB.Unblock::total           13                      
system.ruby.SimicsNetworkPortInterface_Controller.MessageSend |      130331     21.92%     21.92% |      297266     50.00%     71.92% |        6094      1.03%     72.95% |        6244      1.05%     74.00% |        5875      0.99%     74.99% |        6302      1.06%     76.05% |        5359      0.90%     76.95% |        6910      1.16%     78.11% |        5054      0.85%     78.96% |        5862      0.99%     79.94% |        5146      0.87%     80.81% |        5336      0.90%     81.71% |        5317      0.89%     82.60% |        5649      0.95%     83.55% |        5715      0.96%     84.51% |        5673      0.95%     85.47% |        5855      0.98%     86.45% |        5970      1.00%     87.46% |        5123      0.86%     88.32% |        5593      0.94%     89.26% |        4968      0.84%     90.09% |        5146      0.87%     90.96% |        5137      0.86%     91.82% |        4800      0.81%     92.63% |        5106      0.86%     93.49% |        5149      0.87%     94.36% |        5300      0.89%     95.25% |        5048      0.85%     96.10% |        5895      0.99%     97.09% |        5406      0.91%     98.00% |        5856      0.98%     98.98% |        6047      1.02%    100.00%
system.ruby.SimicsNetworkPortInterface_Controller.MessageSend::total       594532                      
system.ruby.SimicsNetworkPortInterface_Controller.MessageRecv |      130331     21.92%     21.92% |      297266     50.00%     71.92% |        6094      1.03%     72.95% |        6244      1.05%     74.00% |        5875      0.99%     74.99% |        6302      1.06%     76.05% |        5359      0.90%     76.95% |        6910      1.16%     78.11% |        5054      0.85%     78.96% |        5862      0.99%     79.94% |        5146      0.87%     80.81% |        5336      0.90%     81.71% |        5317      0.89%     82.60% |        5649      0.95%     83.55% |        5715      0.96%     84.51% |        5673      0.95%     85.47% |        5855      0.98%     86.45% |        5970      1.00%     87.46% |        5123      0.86%     88.32% |        5593      0.94%     89.26% |        4968      0.84%     90.09% |        5146      0.87%     90.96% |        5137      0.86%     91.82% |        4800      0.81%     92.63% |        5106      0.86%     93.49% |        5149      0.87%     94.36% |        5300      0.89%     95.25% |        5048      0.85%     96.10% |        5895      0.99%     97.09% |        5406      0.91%     98.00% |        5856      0.98%     98.98% |        6047      1.02%    100.00%
system.ruby.SimicsNetworkPortInterface_Controller.MessageRecv::total       594532                      
system.ruby.SimicsNetworkPortInterface_Controller.A.MessageSend |      130331     21.92%     21.92% |      297266     50.00%     71.92% |        6094      1.03%     72.95% |        6244      1.05%     74.00% |        5875      0.99%     74.99% |        6302      1.06%     76.05% |        5359      0.90%     76.95% |        6910      1.16%     78.11% |        5054      0.85%     78.96% |        5862      0.99%     79.94% |        5146      0.87%     80.81% |        5336      0.90%     81.71% |        5317      0.89%     82.60% |        5649      0.95%     83.55% |        5715      0.96%     84.51% |        5673      0.95%     85.47% |        5855      0.98%     86.45% |        5970      1.00%     87.46% |        5123      0.86%     88.32% |        5593      0.94%     89.26% |        4968      0.84%     90.09% |        5146      0.87%     90.96% |        5137      0.86%     91.82% |        4800      0.81%     92.63% |        5106      0.86%     93.49% |        5149      0.87%     94.36% |        5300      0.89%     95.25% |        5048      0.85%     96.10% |        5895      0.99%     97.09% |        5406      0.91%     98.00% |        5856      0.98%     98.98% |        6047      1.02%    100.00%
system.ruby.SimicsNetworkPortInterface_Controller.A.MessageSend::total       594532                      
system.ruby.SimicsNetworkPortInterface_Controller.A.MessageRecv |      130331     21.92%     21.92% |      297266     50.00%     71.92% |        6094      1.03%     72.95% |        6244      1.05%     74.00% |        5875      0.99%     74.99% |        6302      1.06%     76.05% |        5359      0.90%     76.95% |        6910      1.16%     78.11% |        5054      0.85%     78.96% |        5862      0.99%     79.94% |        5146      0.87%     80.81% |        5336      0.90%     81.71% |        5317      0.89%     82.60% |        5649      0.95%     83.55% |        5715      0.96%     84.51% |        5673      0.95%     85.47% |        5855      0.98%     86.45% |        5970      1.00%     87.46% |        5123      0.86%     88.32% |        5593      0.94%     89.26% |        4968      0.84%     90.09% |        5146      0.87%     90.96% |        5137      0.86%     91.82% |        4800      0.81%     92.63% |        5106      0.86%     93.49% |        5149      0.87%     94.36% |        5300      0.89%     95.25% |        5048      0.85%     96.10% |        5895      0.99%     97.09% |        5406      0.91%     98.00% |        5856      0.98%     98.98% |        6047      1.02%    100.00%
system.ruby.SimicsNetworkPortInterface_Controller.A.MessageRecv::total       594532                      
system.switch_cpus.kern.inst.arm                    0                       # number of arm instructions executed
system.switch_cpus.kern.inst.quiesce                0                       # number of quiesce instructions executed

---------- End Simulation Statistics   ----------
