
---------- Begin Simulation Statistics ----------
sim_seconds                                  0.038081                       # Number of seconds simulated
sim_ticks                                 38080635000                       # Number of ticks simulated
final_tick                               5214248713500                       # Number of ticks from beginning of simulation (restored from checkpoints and never reset)
sim_freq                                 1000000000000                       # Frequency of simulated ticks
host_inst_rate                                  33250                       # Simulator instruction rate (inst/s)
host_op_rate                                    59781                       # Simulator op (including micro ops) rate (op/s)
host_tick_rate                               51995952                       # Simulator tick rate (ticks/s)
host_mem_usage                                4825572                       # Number of bytes of host memory used
host_seconds                                   732.38                       # Real time elapsed on the host
sim_insts                                    24351178                       # Number of instructions simulated
sim_ops                                      43782310                       # Number of ops (including micro ops) simulated
system.voltage_domain.voltage                       1                       # Voltage in Volts
system.clk_domain.clock                           500                       # Clock period in ticks
system.mem_ctrls0.bytes_read::ruby.dir_cntrl0      4969088                       # Number of bytes read from this memory
system.mem_ctrls0.bytes_read::total           4969088                       # Number of bytes read from this memory
system.mem_ctrls0.bytes_written::ruby.dir_cntrl0      3965440                       # Number of bytes written to this memory
system.mem_ctrls0.bytes_written::total        3965440                       # Number of bytes written to this memory
system.mem_ctrls0.num_reads::ruby.dir_cntrl0        77642                       # Number of read requests responded to by this memory
system.mem_ctrls0.num_reads::total              77642                       # Number of read requests responded to by this memory
system.mem_ctrls0.num_writes::ruby.dir_cntrl0        61960                       # Number of write requests responded to by this memory
system.mem_ctrls0.num_writes::total             61960                       # Number of write requests responded to by this memory
system.mem_ctrls0.bw_read::ruby.dir_cntrl0    130488580                       # Total read bandwidth from this memory (bytes/s)
system.mem_ctrls0.bw_read::total            130488580                       # Total read bandwidth from this memory (bytes/s)
system.mem_ctrls0.bw_write::ruby.dir_cntrl0    104132717                       # Write bandwidth from this memory (bytes/s)
system.mem_ctrls0.bw_write::total           104132717                       # Write bandwidth from this memory (bytes/s)
system.mem_ctrls0.bw_total::ruby.dir_cntrl0    234621298                       # Total bandwidth to/from this memory (bytes/s)
system.mem_ctrls0.bw_total::total           234621298                       # Total bandwidth to/from this memory (bytes/s)
system.mem_ctrls0.readReqs                      77642                       # Number of read requests accepted
system.mem_ctrls0.writeReqs                     61960                       # Number of write requests accepted
system.mem_ctrls0.readBursts                    77642                       # Number of DRAM read bursts, including those serviced by the write queue
system.mem_ctrls0.writeBursts                   61960                       # Number of DRAM write bursts, including those merged in the write queue
system.mem_ctrls0.bytesReadDRAM               4967744                       # Total number of bytes read from DRAM
system.mem_ctrls0.bytesReadWrQ                   1344                       # Total number of bytes read from write queue
system.mem_ctrls0.bytesWritten                3965184                       # Total number of bytes written to DRAM
system.mem_ctrls0.bytesReadSys                4969088                       # Total read bytes from the system interface side
system.mem_ctrls0.bytesWrittenSys             3965440                       # Total written bytes from the system interface side
system.mem_ctrls0.servicedByWrQ                    21                       # Number of DRAM read bursts serviced by the write queue
system.mem_ctrls0.mergedWrBursts                    0                       # Number of DRAM write bursts merged with an existing one
system.mem_ctrls0.neitherReadNorWriteReqs            0                       # Number of requests that are neither read nor write
system.mem_ctrls0.perBankRdBursts::0             4395                       # Per bank write bursts
system.mem_ctrls0.perBankRdBursts::1             4840                       # Per bank write bursts
system.mem_ctrls0.perBankRdBursts::2             4545                       # Per bank write bursts
system.mem_ctrls0.perBankRdBursts::3             4967                       # Per bank write bursts
system.mem_ctrls0.perBankRdBursts::4             4853                       # Per bank write bursts
system.mem_ctrls0.perBankRdBursts::5             5351                       # Per bank write bursts
system.mem_ctrls0.perBankRdBursts::6             4952                       # Per bank write bursts
system.mem_ctrls0.perBankRdBursts::7             5222                       # Per bank write bursts
system.mem_ctrls0.perBankRdBursts::8             5045                       # Per bank write bursts
system.mem_ctrls0.perBankRdBursts::9             5202                       # Per bank write bursts
system.mem_ctrls0.perBankRdBursts::10            4616                       # Per bank write bursts
system.mem_ctrls0.perBankRdBursts::11            4794                       # Per bank write bursts
system.mem_ctrls0.perBankRdBursts::12            4591                       # Per bank write bursts
system.mem_ctrls0.perBankRdBursts::13            4630                       # Per bank write bursts
system.mem_ctrls0.perBankRdBursts::14            4802                       # Per bank write bursts
system.mem_ctrls0.perBankRdBursts::15            4816                       # Per bank write bursts
system.mem_ctrls0.perBankWrBursts::0             3623                       # Per bank write bursts
system.mem_ctrls0.perBankWrBursts::1             3566                       # Per bank write bursts
system.mem_ctrls0.perBankWrBursts::2             3643                       # Per bank write bursts
system.mem_ctrls0.perBankWrBursts::3             3793                       # Per bank write bursts
system.mem_ctrls0.perBankWrBursts::4             3862                       # Per bank write bursts
system.mem_ctrls0.perBankWrBursts::5             4191                       # Per bank write bursts
system.mem_ctrls0.perBankWrBursts::6             3929                       # Per bank write bursts
system.mem_ctrls0.perBankWrBursts::7             4192                       # Per bank write bursts
system.mem_ctrls0.perBankWrBursts::8             4056                       # Per bank write bursts
system.mem_ctrls0.perBankWrBursts::9             4133                       # Per bank write bursts
system.mem_ctrls0.perBankWrBursts::10            3697                       # Per bank write bursts
system.mem_ctrls0.perBankWrBursts::11            3637                       # Per bank write bursts
system.mem_ctrls0.perBankWrBursts::12            3795                       # Per bank write bursts
system.mem_ctrls0.perBankWrBursts::13            3901                       # Per bank write bursts
system.mem_ctrls0.perBankWrBursts::14            4031                       # Per bank write bursts
system.mem_ctrls0.perBankWrBursts::15            3907                       # Per bank write bursts
system.mem_ctrls0.numRdRetry                        0                       # Number of times read queue was full causing retry
system.mem_ctrls0.numWrRetry                      156                       # Number of times write queue was full causing retry
system.mem_ctrls0.totGap                  38080153500                       # Total gap between requests
system.mem_ctrls0.readPktSize::0                    0                       # Read request sizes (log2)
system.mem_ctrls0.readPktSize::1                    0                       # Read request sizes (log2)
system.mem_ctrls0.readPktSize::2                    0                       # Read request sizes (log2)
system.mem_ctrls0.readPktSize::3                    0                       # Read request sizes (log2)
system.mem_ctrls0.readPktSize::4                    0                       # Read request sizes (log2)
system.mem_ctrls0.readPktSize::5                    0                       # Read request sizes (log2)
system.mem_ctrls0.readPktSize::6                77642                       # Read request sizes (log2)
system.mem_ctrls0.writePktSize::0                   0                       # Write request sizes (log2)
system.mem_ctrls0.writePktSize::1                   0                       # Write request sizes (log2)
system.mem_ctrls0.writePktSize::2                   0                       # Write request sizes (log2)
system.mem_ctrls0.writePktSize::3                   0                       # Write request sizes (log2)
system.mem_ctrls0.writePktSize::4                   0                       # Write request sizes (log2)
system.mem_ctrls0.writePktSize::5                   0                       # Write request sizes (log2)
system.mem_ctrls0.writePktSize::6               61960                       # Write request sizes (log2)
system.mem_ctrls0.rdQLenPdf::0                  59988                       # What read queue length does an incoming req see
system.mem_ctrls0.rdQLenPdf::1                  10639                       # What read queue length does an incoming req see
system.mem_ctrls0.rdQLenPdf::2                   3505                       # What read queue length does an incoming req see
system.mem_ctrls0.rdQLenPdf::3                   1404                       # What read queue length does an incoming req see
system.mem_ctrls0.rdQLenPdf::4                    744                       # What read queue length does an incoming req see
system.mem_ctrls0.rdQLenPdf::5                    437                       # What read queue length does an incoming req see
system.mem_ctrls0.rdQLenPdf::6                    249                       # What read queue length does an incoming req see
system.mem_ctrls0.rdQLenPdf::7                    142                       # What read queue length does an incoming req see
system.mem_ctrls0.rdQLenPdf::8                     90                       # What read queue length does an incoming req see
system.mem_ctrls0.rdQLenPdf::9                     62                       # What read queue length does an incoming req see
system.mem_ctrls0.rdQLenPdf::10                    55                       # What read queue length does an incoming req see
system.mem_ctrls0.rdQLenPdf::11                    47                       # What read queue length does an incoming req see
system.mem_ctrls0.rdQLenPdf::12                    40                       # What read queue length does an incoming req see
system.mem_ctrls0.rdQLenPdf::13                    37                       # What read queue length does an incoming req see
system.mem_ctrls0.rdQLenPdf::14                    36                       # What read queue length does an incoming req see
system.mem_ctrls0.rdQLenPdf::15                    25                       # What read queue length does an incoming req see
system.mem_ctrls0.rdQLenPdf::16                    16                       # What read queue length does an incoming req see
system.mem_ctrls0.rdQLenPdf::17                    15                       # What read queue length does an incoming req see
system.mem_ctrls0.rdQLenPdf::18                    13                       # What read queue length does an incoming req see
system.mem_ctrls0.rdQLenPdf::19                    10                       # What read queue length does an incoming req see
system.mem_ctrls0.rdQLenPdf::20                    10                       # What read queue length does an incoming req see
system.mem_ctrls0.rdQLenPdf::21                    13                       # What read queue length does an incoming req see
system.mem_ctrls0.rdQLenPdf::22                    10                       # What read queue length does an incoming req see
system.mem_ctrls0.rdQLenPdf::23                     6                       # What read queue length does an incoming req see
system.mem_ctrls0.rdQLenPdf::24                     7                       # What read queue length does an incoming req see
system.mem_ctrls0.rdQLenPdf::25                     6                       # What read queue length does an incoming req see
system.mem_ctrls0.rdQLenPdf::26                     5                       # What read queue length does an incoming req see
system.mem_ctrls0.rdQLenPdf::27                     4                       # What read queue length does an incoming req see
system.mem_ctrls0.rdQLenPdf::28                     2                       # What read queue length does an incoming req see
system.mem_ctrls0.rdQLenPdf::29                     2                       # What read queue length does an incoming req see
system.mem_ctrls0.rdQLenPdf::30                     1                       # What read queue length does an incoming req see
system.mem_ctrls0.rdQLenPdf::31                     1                       # What read queue length does an incoming req see
system.mem_ctrls0.wrQLenPdf::0                  11545                       # What write queue length does an incoming req see
system.mem_ctrls0.wrQLenPdf::1                  12630                       # What write queue length does an incoming req see
system.mem_ctrls0.wrQLenPdf::2                  12625                       # What write queue length does an incoming req see
system.mem_ctrls0.wrQLenPdf::3                  12356                       # What write queue length does an incoming req see
system.mem_ctrls0.wrQLenPdf::4                  12001                       # What write queue length does an incoming req see
system.mem_ctrls0.wrQLenPdf::5                    394                       # What write queue length does an incoming req see
system.mem_ctrls0.wrQLenPdf::6                    169                       # What write queue length does an incoming req see
system.mem_ctrls0.wrQLenPdf::7                    240                       # What write queue length does an incoming req see
system.mem_ctrls0.bytesPerActivate::samples        52857                       # Bytes accessed per row activation
system.mem_ctrls0.bytesPerActivate::mean   168.982424                       # Bytes accessed per row activation
system.mem_ctrls0.bytesPerActivate::gmean   120.206649                       # Bytes accessed per row activation
system.mem_ctrls0.bytesPerActivate::stdev   175.035637                       # Bytes accessed per row activation
system.mem_ctrls0.bytesPerActivate::0-127        27032     51.14%     51.14% # Bytes accessed per row activation
system.mem_ctrls0.bytesPerActivate::128-255        13235     25.04%     76.18% # Bytes accessed per row activation
system.mem_ctrls0.bytesPerActivate::256-383         7648     14.47%     90.65% # Bytes accessed per row activation
system.mem_ctrls0.bytesPerActivate::384-511         1946      3.68%     94.33% # Bytes accessed per row activation
system.mem_ctrls0.bytesPerActivate::512-639         1102      2.08%     96.42% # Bytes accessed per row activation
system.mem_ctrls0.bytesPerActivate::640-767          583      1.10%     97.52% # Bytes accessed per row activation
system.mem_ctrls0.bytesPerActivate::768-895          416      0.79%     98.31% # Bytes accessed per row activation
system.mem_ctrls0.bytesPerActivate::896-1023          312      0.59%     98.90% # Bytes accessed per row activation
system.mem_ctrls0.bytesPerActivate::1024-1151          583      1.10%    100.00% # Bytes accessed per row activation
system.mem_ctrls0.bytesPerActivate::total        52857                       # Bytes accessed per row activation
system.mem_ctrls0.rdPerTurnAround::samples        11564                       # Reads before turning the bus around for writes
system.mem_ctrls0.rdPerTurnAround::mean      6.711519                       # Reads before turning the bus around for writes
system.mem_ctrls0.rdPerTurnAround::stdev    37.540177                       # Reads before turning the bus around for writes
system.mem_ctrls0.rdPerTurnAround::0-127        11558     99.95%     99.95% # Reads before turning the bus around for writes
system.mem_ctrls0.rdPerTurnAround::128-255            5      0.04%     99.99% # Reads before turning the bus around for writes
system.mem_ctrls0.rdPerTurnAround::3968-4095            1      0.01%    100.00% # Reads before turning the bus around for writes
system.mem_ctrls0.rdPerTurnAround::total        11564                       # Reads before turning the bus around for writes
system.mem_ctrls0.wrPerTurnAround::samples        11564                       # Writes before turning the bus around for reads
system.mem_ctrls0.wrPerTurnAround::mean      5.357662                       # Writes before turning the bus around for reads
system.mem_ctrls0.wrPerTurnAround::gmean     5.284270                       # Writes before turning the bus around for reads
system.mem_ctrls0.wrPerTurnAround::stdev     1.107267                       # Writes before turning the bus around for reads
system.mem_ctrls0.wrPerTurnAround::4-7          11101     96.00%     96.00% # Writes before turning the bus around for reads
system.mem_ctrls0.wrPerTurnAround::8-11           381      3.29%     99.29% # Writes before turning the bus around for reads
system.mem_ctrls0.wrPerTurnAround::12-15           55      0.48%     99.77% # Writes before turning the bus around for reads
system.mem_ctrls0.wrPerTurnAround::16-19           27      0.23%    100.00% # Writes before turning the bus around for reads
system.mem_ctrls0.wrPerTurnAround::total        11564                       # Writes before turning the bus around for reads
system.mem_ctrls0.totQLat                  1860388817                       # Total ticks spent queuing
system.mem_ctrls0.totMemAccLat             3315782567                       # Total ticks spent from burst creation until serviced by the DRAM
system.mem_ctrls0.totBusLat                 388105000                       # Total ticks spent in databus transfers
system.mem_ctrls0.avgQLat                    23967.60                       # Average queueing delay per DRAM burst
system.mem_ctrls0.avgBusLat                   5000.00                       # Average bus latency per DRAM burst
system.mem_ctrls0.avgMemAccLat               42717.60                       # Average memory access latency per DRAM burst
system.mem_ctrls0.avgRdBW                      130.45                       # Average DRAM read bandwidth in MiByte/s
system.mem_ctrls0.avgWrBW                      104.13                       # Average achieved write bandwidth in MiByte/s
system.mem_ctrls0.avgRdBWSys                   130.49                       # Average system read bandwidth in MiByte/s
system.mem_ctrls0.avgWrBWSys                   104.13                       # Average system write bandwidth in MiByte/s
system.mem_ctrls0.peakBW                     12800.00                       # Theoretical peak bandwidth in MiByte/s
system.mem_ctrls0.busUtil                        1.83                       # Data bus utilization in percentage
system.mem_ctrls0.busUtilRead                    1.02                       # Data bus utilization in percentage for reads
system.mem_ctrls0.busUtilWrite                   0.81                       # Data bus utilization in percentage for writes
system.mem_ctrls0.avgRdQLen                      1.10                       # Average read queue length when enqueuing
system.mem_ctrls0.avgWrQLen                      2.85                       # Average write queue length when enqueuing
system.mem_ctrls0.readRowHits                   53409                       # Number of row buffer hits during reads
system.mem_ctrls0.writeRowHits                  33303                       # Number of row buffer hits during writes
system.mem_ctrls0.readRowHitRate                68.81                       # Row buffer hit rate for reads
system.mem_ctrls0.writeRowHitRate               53.75                       # Row buffer hit rate for writes
system.mem_ctrls0.avgGap                    272776.56                       # Average gap between requests
system.mem_ctrls0.pageHitRate                   62.12                       # Row buffer hit rate, read and write combined
system.mem_ctrls0.memoryStateTime::IDLE    8551494000                       # Time in different power states
system.mem_ctrls0.memoryStateTime::REF     1271400000                       # Time in different power states
system.mem_ctrls0.memoryStateTime::PRE_PDN            0                       # Time in different power states
system.mem_ctrls0.memoryStateTime::ACT    28252458000                       # Time in different power states
system.mem_ctrls0.memoryStateTime::ACT_PDN            0                       # Time in different power states
system.mem_ctrls0.actEnergy::0              199395000                       # Energy for activate commands per rank (pJ)
system.mem_ctrls0.actEnergy::1              200173680                       # Energy for activate commands per rank (pJ)
system.mem_ctrls0.preEnergy::0              108796875                       # Energy for precharge commands per rank (pJ)
system.mem_ctrls0.preEnergy::1              109221750                       # Energy for precharge commands per rank (pJ)
system.mem_ctrls0.readEnergy::0             305112600                       # Energy for read commands per rank (pJ)
system.mem_ctrls0.readEnergy::1             300190800                       # Energy for read commands per rank (pJ)
system.mem_ctrls0.writeEnergy::0            199571040                       # Energy for write commands per rank (pJ)
system.mem_ctrls0.writeEnergy::1            201871440                       # Energy for write commands per rank (pJ)
system.mem_ctrls0.refreshEnergy::0         2486858400                       # Energy for refresh commands per rank (pJ)
system.mem_ctrls0.refreshEnergy::1         2486858400                       # Energy for refresh commands per rank (pJ)
system.mem_ctrls0.actBackEnergy::0        15301453635                       # Energy for active background per rank (pJ)
system.mem_ctrls0.actBackEnergy::1        14876148420                       # Energy for active background per rank (pJ)
system.mem_ctrls0.preBackEnergy::0         9422685750                       # Energy for precharge background per rank (pJ)
system.mem_ctrls0.preBackEnergy::1         9795760500                       # Energy for precharge background per rank (pJ)
system.mem_ctrls0.totalEnergy::0          28023873300                       # Total energy per rank (pJ)
system.mem_ctrls0.totalEnergy::1          27970224990                       # Total energy per rank (pJ)
system.mem_ctrls0.averagePower::0          736.017249                       # Core power per rank (mW)
system.mem_ctrls0.averagePower::1          734.608233                       # Core power per rank (mW)
system.mem_ctrls1.bytes_read::ruby.dir_cntrl1      4882624                       # Number of bytes read from this memory
system.mem_ctrls1.bytes_read::total           4882624                       # Number of bytes read from this memory
system.mem_ctrls1.bytes_written::ruby.dir_cntrl1      3886848                       # Number of bytes written to this memory
system.mem_ctrls1.bytes_written::total        3886848                       # Number of bytes written to this memory
system.mem_ctrls1.num_reads::ruby.dir_cntrl1        76291                       # Number of read requests responded to by this memory
system.mem_ctrls1.num_reads::total              76291                       # Number of read requests responded to by this memory
system.mem_ctrls1.num_writes::ruby.dir_cntrl1        60732                       # Number of write requests responded to by this memory
system.mem_ctrls1.num_writes::total             60732                       # Number of write requests responded to by this memory
system.mem_ctrls1.bw_read::ruby.dir_cntrl1    128218030                       # Total read bandwidth from this memory (bytes/s)
system.mem_ctrls1.bw_read::total            128218030                       # Total read bandwidth from this memory (bytes/s)
system.mem_ctrls1.bw_write::ruby.dir_cntrl1    102068886                       # Write bandwidth from this memory (bytes/s)
system.mem_ctrls1.bw_write::total           102068886                       # Write bandwidth from this memory (bytes/s)
system.mem_ctrls1.bw_total::ruby.dir_cntrl1    230286916                       # Total bandwidth to/from this memory (bytes/s)
system.mem_ctrls1.bw_total::total           230286916                       # Total bandwidth to/from this memory (bytes/s)
system.mem_ctrls1.readReqs                      76291                       # Number of read requests accepted
system.mem_ctrls1.writeReqs                     60732                       # Number of write requests accepted
system.mem_ctrls1.readBursts                    76291                       # Number of DRAM read bursts, including those serviced by the write queue
system.mem_ctrls1.writeBursts                   60732                       # Number of DRAM write bursts, including those merged in the write queue
system.mem_ctrls1.bytesReadDRAM               4881792                       # Total number of bytes read from DRAM
system.mem_ctrls1.bytesReadWrQ                    832                       # Total number of bytes read from write queue
system.mem_ctrls1.bytesWritten                3886656                       # Total number of bytes written to DRAM
system.mem_ctrls1.bytesReadSys                4882624                       # Total read bytes from the system interface side
system.mem_ctrls1.bytesWrittenSys             3886848                       # Total written bytes from the system interface side
system.mem_ctrls1.servicedByWrQ                    13                       # Number of DRAM read bursts serviced by the write queue
system.mem_ctrls1.mergedWrBursts                    0                       # Number of DRAM write bursts merged with an existing one
system.mem_ctrls1.neitherReadNorWriteReqs            0                       # Number of requests that are neither read nor write
system.mem_ctrls1.perBankRdBursts::0             4324                       # Per bank write bursts
system.mem_ctrls1.perBankRdBursts::1             4746                       # Per bank write bursts
system.mem_ctrls1.perBankRdBursts::2             4466                       # Per bank write bursts
system.mem_ctrls1.perBankRdBursts::3             4894                       # Per bank write bursts
system.mem_ctrls1.perBankRdBursts::4             4784                       # Per bank write bursts
system.mem_ctrls1.perBankRdBursts::5             5297                       # Per bank write bursts
system.mem_ctrls1.perBankRdBursts::6             4886                       # Per bank write bursts
system.mem_ctrls1.perBankRdBursts::7             5164                       # Per bank write bursts
system.mem_ctrls1.perBankRdBursts::8             4937                       # Per bank write bursts
system.mem_ctrls1.perBankRdBursts::9             5090                       # Per bank write bursts
system.mem_ctrls1.perBankRdBursts::10            4517                       # Per bank write bursts
system.mem_ctrls1.perBankRdBursts::11            4727                       # Per bank write bursts
system.mem_ctrls1.perBankRdBursts::12            4493                       # Per bank write bursts
system.mem_ctrls1.perBankRdBursts::13            4575                       # Per bank write bursts
system.mem_ctrls1.perBankRdBursts::14            4636                       # Per bank write bursts
system.mem_ctrls1.perBankRdBursts::15            4742                       # Per bank write bursts
system.mem_ctrls1.perBankWrBursts::0             3556                       # Per bank write bursts
system.mem_ctrls1.perBankWrBursts::1             3505                       # Per bank write bursts
system.mem_ctrls1.perBankWrBursts::2             3578                       # Per bank write bursts
system.mem_ctrls1.perBankWrBursts::3             3743                       # Per bank write bursts
system.mem_ctrls1.perBankWrBursts::4             3792                       # Per bank write bursts
system.mem_ctrls1.perBankWrBursts::5             4122                       # Per bank write bursts
system.mem_ctrls1.perBankWrBursts::6             3850                       # Per bank write bursts
system.mem_ctrls1.perBankWrBursts::7             4108                       # Per bank write bursts
system.mem_ctrls1.perBankWrBursts::8             3968                       # Per bank write bursts
system.mem_ctrls1.perBankWrBursts::9             4035                       # Per bank write bursts
system.mem_ctrls1.perBankWrBursts::10            3616                       # Per bank write bursts
system.mem_ctrls1.perBankWrBursts::11            3570                       # Per bank write bursts
system.mem_ctrls1.perBankWrBursts::12            3718                       # Per bank write bursts
system.mem_ctrls1.perBankWrBursts::13            3831                       # Per bank write bursts
system.mem_ctrls1.perBankWrBursts::14            3898                       # Per bank write bursts
system.mem_ctrls1.perBankWrBursts::15            3839                       # Per bank write bursts
system.mem_ctrls1.numRdRetry                        0                       # Number of times read queue was full causing retry
system.mem_ctrls1.numWrRetry                      149                       # Number of times write queue was full causing retry
system.mem_ctrls1.totGap                  38079915000                       # Total gap between requests
system.mem_ctrls1.readPktSize::0                    0                       # Read request sizes (log2)
system.mem_ctrls1.readPktSize::1                    0                       # Read request sizes (log2)
system.mem_ctrls1.readPktSize::2                    0                       # Read request sizes (log2)
system.mem_ctrls1.readPktSize::3                    0                       # Read request sizes (log2)
system.mem_ctrls1.readPktSize::4                    0                       # Read request sizes (log2)
system.mem_ctrls1.readPktSize::5                    0                       # Read request sizes (log2)
system.mem_ctrls1.readPktSize::6                76291                       # Read request sizes (log2)
system.mem_ctrls1.writePktSize::0                   0                       # Write request sizes (log2)
system.mem_ctrls1.writePktSize::1                   0                       # Write request sizes (log2)
system.mem_ctrls1.writePktSize::2                   0                       # Write request sizes (log2)
system.mem_ctrls1.writePktSize::3                   0                       # Write request sizes (log2)
system.mem_ctrls1.writePktSize::4                   0                       # Write request sizes (log2)
system.mem_ctrls1.writePktSize::5                   0                       # Write request sizes (log2)
system.mem_ctrls1.writePktSize::6               60732                       # Write request sizes (log2)
system.mem_ctrls1.rdQLenPdf::0                  59438                       # What read queue length does an incoming req see
system.mem_ctrls1.rdQLenPdf::1                  10118                       # What read queue length does an incoming req see
system.mem_ctrls1.rdQLenPdf::2                   3265                       # What read queue length does an incoming req see
system.mem_ctrls1.rdQLenPdf::3                   1369                       # What read queue length does an incoming req see
system.mem_ctrls1.rdQLenPdf::4                    750                       # What read queue length does an incoming req see
system.mem_ctrls1.rdQLenPdf::5                    438                       # What read queue length does an incoming req see
system.mem_ctrls1.rdQLenPdf::6                    274                       # What read queue length does an incoming req see
system.mem_ctrls1.rdQLenPdf::7                    159                       # What read queue length does an incoming req see
system.mem_ctrls1.rdQLenPdf::8                     90                       # What read queue length does an incoming req see
system.mem_ctrls1.rdQLenPdf::9                     59                       # What read queue length does an incoming req see
system.mem_ctrls1.rdQLenPdf::10                    44                       # What read queue length does an incoming req see
system.mem_ctrls1.rdQLenPdf::11                    45                       # What read queue length does an incoming req see
system.mem_ctrls1.rdQLenPdf::12                    32                       # What read queue length does an incoming req see
system.mem_ctrls1.rdQLenPdf::13                    27                       # What read queue length does an incoming req see
system.mem_ctrls1.rdQLenPdf::14                    23                       # What read queue length does an incoming req see
system.mem_ctrls1.rdQLenPdf::15                    26                       # What read queue length does an incoming req see
system.mem_ctrls1.rdQLenPdf::16                    22                       # What read queue length does an incoming req see
system.mem_ctrls1.rdQLenPdf::17                    16                       # What read queue length does an incoming req see
system.mem_ctrls1.rdQLenPdf::18                    13                       # What read queue length does an incoming req see
system.mem_ctrls1.rdQLenPdf::19                    13                       # What read queue length does an incoming req see
system.mem_ctrls1.rdQLenPdf::20                    12                       # What read queue length does an incoming req see
system.mem_ctrls1.rdQLenPdf::21                    10                       # What read queue length does an incoming req see
system.mem_ctrls1.rdQLenPdf::22                     7                       # What read queue length does an incoming req see
system.mem_ctrls1.rdQLenPdf::23                     6                       # What read queue length does an incoming req see
system.mem_ctrls1.rdQLenPdf::24                     8                       # What read queue length does an incoming req see
system.mem_ctrls1.rdQLenPdf::25                     6                       # What read queue length does an incoming req see
system.mem_ctrls1.rdQLenPdf::26                     4                       # What read queue length does an incoming req see
system.mem_ctrls1.rdQLenPdf::27                     2                       # What read queue length does an incoming req see
system.mem_ctrls1.rdQLenPdf::28                     1                       # What read queue length does an incoming req see
system.mem_ctrls1.rdQLenPdf::29                     1                       # What read queue length does an incoming req see
system.mem_ctrls1.rdQLenPdf::30                     0                       # What read queue length does an incoming req see
system.mem_ctrls1.rdQLenPdf::31                     0                       # What read queue length does an incoming req see
system.mem_ctrls1.wrQLenPdf::0                  11332                       # What write queue length does an incoming req see
system.mem_ctrls1.wrQLenPdf::1                  12318                       # What write queue length does an incoming req see
system.mem_ctrls1.wrQLenPdf::2                  12361                       # What write queue length does an incoming req see
system.mem_ctrls1.wrQLenPdf::3                  12130                       # What write queue length does an incoming req see
system.mem_ctrls1.wrQLenPdf::4                  11789                       # What write queue length does an incoming req see
system.mem_ctrls1.wrQLenPdf::5                    425                       # What write queue length does an incoming req see
system.mem_ctrls1.wrQLenPdf::6                    151                       # What write queue length does an incoming req see
system.mem_ctrls1.wrQLenPdf::7                    226                       # What write queue length does an incoming req see
system.mem_ctrls1.bytesPerActivate::samples        50929                       # Bytes accessed per row activation
system.mem_ctrls1.bytesPerActivate::mean   172.141138                       # Bytes accessed per row activation
system.mem_ctrls1.bytesPerActivate::gmean   121.918247                       # Bytes accessed per row activation
system.mem_ctrls1.bytesPerActivate::stdev   178.230160                       # Bytes accessed per row activation
system.mem_ctrls1.bytesPerActivate::0-127        25659     50.38%     50.38% # Bytes accessed per row activation
system.mem_ctrls1.bytesPerActivate::128-255        12803     25.14%     75.52% # Bytes accessed per row activation
system.mem_ctrls1.bytesPerActivate::256-383         7529     14.78%     90.30% # Bytes accessed per row activation
system.mem_ctrls1.bytesPerActivate::384-511         1856      3.64%     93.95% # Bytes accessed per row activation
system.mem_ctrls1.bytesPerActivate::512-639         1133      2.22%     96.17% # Bytes accessed per row activation
system.mem_ctrls1.bytesPerActivate::640-767          629      1.24%     97.41% # Bytes accessed per row activation
system.mem_ctrls1.bytesPerActivate::768-895          427      0.84%     98.25% # Bytes accessed per row activation
system.mem_ctrls1.bytesPerActivate::896-1023          298      0.59%     98.83% # Bytes accessed per row activation
system.mem_ctrls1.bytesPerActivate::1024-1151          595      1.17%    100.00% # Bytes accessed per row activation
system.mem_ctrls1.bytesPerActivate::total        50929                       # Bytes accessed per row activation
system.mem_ctrls1.rdPerTurnAround::samples        11354                       # Reads before turning the bus around for writes
system.mem_ctrls1.rdPerTurnAround::mean      6.717368                       # Reads before turning the bus around for writes
system.mem_ctrls1.rdPerTurnAround::stdev    29.861603                       # Reads before turning the bus around for writes
system.mem_ctrls1.rdPerTurnAround::0-127        11349     99.96%     99.96% # Reads before turning the bus around for writes
system.mem_ctrls1.rdPerTurnAround::128-255            3      0.03%     99.98% # Reads before turning the bus around for writes
system.mem_ctrls1.rdPerTurnAround::1152-1279            1      0.01%     99.99% # Reads before turning the bus around for writes
system.mem_ctrls1.rdPerTurnAround::2816-2943            1      0.01%    100.00% # Reads before turning the bus around for writes
system.mem_ctrls1.rdPerTurnAround::total        11354                       # Reads before turning the bus around for writes
system.mem_ctrls1.wrPerTurnAround::samples        11354                       # Writes before turning the bus around for reads
system.mem_ctrls1.wrPerTurnAround::mean      5.348688                       # Writes before turning the bus around for reads
system.mem_ctrls1.wrPerTurnAround::gmean     5.274410                       # Writes before turning the bus around for reads
system.mem_ctrls1.wrPerTurnAround::stdev     1.118951                       # Writes before turning the bus around for reads
system.mem_ctrls1.wrPerTurnAround::4-7          10898     95.98%     95.98% # Writes before turning the bus around for reads
system.mem_ctrls1.wrPerTurnAround::8-11           377      3.32%     99.30% # Writes before turning the bus around for reads
system.mem_ctrls1.wrPerTurnAround::12-15           50      0.44%     99.74% # Writes before turning the bus around for reads
system.mem_ctrls1.wrPerTurnAround::16-19           29      0.26%    100.00% # Writes before turning the bus around for reads
system.mem_ctrls1.wrPerTurnAround::total        11354                       # Writes before turning the bus around for reads
system.mem_ctrls1.totQLat                  1779069077                       # Total ticks spent queuing
system.mem_ctrls1.totMemAccLat             3209281577                       # Total ticks spent from burst creation until serviced by the DRAM
system.mem_ctrls1.totBusLat                 381390000                       # Total ticks spent in databus transfers
system.mem_ctrls1.avgQLat                    23323.49                       # Average queueing delay per DRAM burst
system.mem_ctrls1.avgBusLat                   5000.00                       # Average bus latency per DRAM burst
system.mem_ctrls1.avgMemAccLat               42073.49                       # Average memory access latency per DRAM burst
system.mem_ctrls1.avgRdBW                      128.20                       # Average DRAM read bandwidth in MiByte/s
system.mem_ctrls1.avgWrBW                      102.06                       # Average achieved write bandwidth in MiByte/s
system.mem_ctrls1.avgRdBWSys                   128.22                       # Average system read bandwidth in MiByte/s
system.mem_ctrls1.avgWrBWSys                   102.07                       # Average system write bandwidth in MiByte/s
system.mem_ctrls1.peakBW                     12800.00                       # Theoretical peak bandwidth in MiByte/s
system.mem_ctrls1.busUtil                        1.80                       # Data bus utilization in percentage
system.mem_ctrls1.busUtilRead                    1.00                       # Data bus utilization in percentage for reads
system.mem_ctrls1.busUtilWrite                   0.80                       # Data bus utilization in percentage for writes
system.mem_ctrls1.avgRdQLen                      1.07                       # Average read queue length when enqueuing
system.mem_ctrls1.avgWrQLen                      2.91                       # Average write queue length when enqueuing
system.mem_ctrls1.readRowHits                   52636                       # Number of row buffer hits during reads
system.mem_ctrls1.writeRowHits                  33431                       # Number of row buffer hits during writes
system.mem_ctrls1.readRowHitRate                69.01                       # Row buffer hit rate for reads
system.mem_ctrls1.writeRowHitRate               55.05                       # Row buffer hit rate for writes
system.mem_ctrls1.avgGap                    277908.93                       # Average gap between requests
system.mem_ctrls1.pageHitRate                   62.82                       # Row buffer hit rate, read and write combined
system.mem_ctrls1.memoryStateTime::IDLE    8917004000                       # Time in different power states
system.mem_ctrls1.memoryStateTime::REF     1271400000                       # Time in different power states
system.mem_ctrls1.memoryStateTime::PRE_PDN            0                       # Time in different power states
system.mem_ctrls1.memoryStateTime::ACT    27887123500                       # Time in different power states
system.mem_ctrls1.memoryStateTime::ACT_PDN            0                       # Time in different power states
system.mem_ctrls1.actEnergy::0              194050080                       # Energy for activate commands per rank (pJ)
system.mem_ctrls1.actEnergy::1              190927800                       # Energy for activate commands per rank (pJ)
system.mem_ctrls1.preEnergy::0              105880500                       # Energy for precharge commands per rank (pJ)
system.mem_ctrls1.preEnergy::1              104176875                       # Energy for precharge commands per rank (pJ)
system.mem_ctrls1.readEnergy::0             300690000                       # Energy for read commands per rank (pJ)
system.mem_ctrls1.readEnergy::1             294106800                       # Energy for read commands per rank (pJ)
system.mem_ctrls1.writeEnergy::0            196039440                       # Energy for write commands per rank (pJ)
system.mem_ctrls1.writeEnergy::1            197413200                       # Energy for write commands per rank (pJ)
system.mem_ctrls1.refreshEnergy::0         2486858400                       # Energy for refresh commands per rank (pJ)
system.mem_ctrls1.refreshEnergy::1         2486858400                       # Energy for refresh commands per rank (pJ)
system.mem_ctrls1.actBackEnergy::0        15180242850                       # Energy for active background per rank (pJ)
system.mem_ctrls1.actBackEnergy::1        14454729180                       # Energy for active background per rank (pJ)
system.mem_ctrls1.preBackEnergy::0         9529011000                       # Energy for precharge background per rank (pJ)
system.mem_ctrls1.preBackEnergy::1        10165426500                       # Energy for precharge background per rank (pJ)
system.mem_ctrls1.totalEnergy::0          27992772270                       # Total energy per rank (pJ)
system.mem_ctrls1.totalEnergy::1          27893638755                       # Total energy per rank (pJ)
system.mem_ctrls1.averagePower::0          735.200413                       # Core power per rank (mW)
system.mem_ctrls1.averagePower::1          732.596777                       # Core power per rank (mW)
system.mem_ctrls2.bytes_read::ruby.dir_cntrl2      4881472                       # Number of bytes read from this memory
system.mem_ctrls2.bytes_read::total           4881472                       # Number of bytes read from this memory
system.mem_ctrls2.bytes_written::ruby.dir_cntrl2      3886656                       # Number of bytes written to this memory
system.mem_ctrls2.bytes_written::total        3886656                       # Number of bytes written to this memory
system.mem_ctrls2.num_reads::ruby.dir_cntrl2        76273                       # Number of read requests responded to by this memory
system.mem_ctrls2.num_reads::total              76273                       # Number of read requests responded to by this memory
system.mem_ctrls2.num_writes::ruby.dir_cntrl2        60729                       # Number of write requests responded to by this memory
system.mem_ctrls2.num_writes::total             60729                       # Number of write requests responded to by this memory
system.mem_ctrls2.bw_read::ruby.dir_cntrl2    128187778                       # Total read bandwidth from this memory (bytes/s)
system.mem_ctrls2.bw_read::total            128187778                       # Total read bandwidth from this memory (bytes/s)
system.mem_ctrls2.bw_write::ruby.dir_cntrl2    102063844                       # Write bandwidth from this memory (bytes/s)
system.mem_ctrls2.bw_write::total           102063844                       # Write bandwidth from this memory (bytes/s)
system.mem_ctrls2.bw_total::ruby.dir_cntrl2    230251623                       # Total bandwidth to/from this memory (bytes/s)
system.mem_ctrls2.bw_total::total           230251623                       # Total bandwidth to/from this memory (bytes/s)
system.mem_ctrls2.readReqs                      76273                       # Number of read requests accepted
system.mem_ctrls2.writeReqs                     60729                       # Number of write requests accepted
system.mem_ctrls2.readBursts                    76273                       # Number of DRAM read bursts, including those serviced by the write queue
system.mem_ctrls2.writeBursts                   60729                       # Number of DRAM write bursts, including those merged in the write queue
system.mem_ctrls2.bytesReadDRAM               4880512                       # Total number of bytes read from DRAM
system.mem_ctrls2.bytesReadWrQ                    960                       # Total number of bytes read from write queue
system.mem_ctrls2.bytesWritten                3886592                       # Total number of bytes written to DRAM
system.mem_ctrls2.bytesReadSys                4881472                       # Total read bytes from the system interface side
system.mem_ctrls2.bytesWrittenSys             3886656                       # Total written bytes from the system interface side
system.mem_ctrls2.servicedByWrQ                    15                       # Number of DRAM read bursts serviced by the write queue
system.mem_ctrls2.mergedWrBursts                    0                       # Number of DRAM write bursts merged with an existing one
system.mem_ctrls2.neitherReadNorWriteReqs            0                       # Number of requests that are neither read nor write
system.mem_ctrls2.perBankRdBursts::0             4320                       # Per bank write bursts
system.mem_ctrls2.perBankRdBursts::1             4751                       # Per bank write bursts
system.mem_ctrls2.perBankRdBursts::2             4466                       # Per bank write bursts
system.mem_ctrls2.perBankRdBursts::3             4903                       # Per bank write bursts
system.mem_ctrls2.perBankRdBursts::4             4777                       # Per bank write bursts
system.mem_ctrls2.perBankRdBursts::5             5296                       # Per bank write bursts
system.mem_ctrls2.perBankRdBursts::6             4864                       # Per bank write bursts
system.mem_ctrls2.perBankRdBursts::7             5163                       # Per bank write bursts
system.mem_ctrls2.perBankRdBursts::8             4918                       # Per bank write bursts
system.mem_ctrls2.perBankRdBursts::9             5101                       # Per bank write bursts
system.mem_ctrls2.perBankRdBursts::10            4520                       # Per bank write bursts
system.mem_ctrls2.perBankRdBursts::11            4768                       # Per bank write bursts
system.mem_ctrls2.perBankRdBursts::12            4492                       # Per bank write bursts
system.mem_ctrls2.perBankRdBursts::13            4543                       # Per bank write bursts
system.mem_ctrls2.perBankRdBursts::14            4623                       # Per bank write bursts
system.mem_ctrls2.perBankRdBursts::15            4753                       # Per bank write bursts
system.mem_ctrls2.perBankWrBursts::0             3556                       # Per bank write bursts
system.mem_ctrls2.perBankWrBursts::1             3507                       # Per bank write bursts
system.mem_ctrls2.perBankWrBursts::2             3568                       # Per bank write bursts
system.mem_ctrls2.perBankWrBursts::3             3732                       # Per bank write bursts
system.mem_ctrls2.perBankWrBursts::4             3787                       # Per bank write bursts
system.mem_ctrls2.perBankWrBursts::5             4120                       # Per bank write bursts
system.mem_ctrls2.perBankWrBursts::6             3855                       # Per bank write bursts
system.mem_ctrls2.perBankWrBursts::7             4122                       # Per bank write bursts
system.mem_ctrls2.perBankWrBursts::8             3968                       # Per bank write bursts
system.mem_ctrls2.perBankWrBursts::9             4046                       # Per bank write bursts
system.mem_ctrls2.perBankWrBursts::10            3616                       # Per bank write bursts
system.mem_ctrls2.perBankWrBursts::11            3577                       # Per bank write bursts
system.mem_ctrls2.perBankWrBursts::12            3720                       # Per bank write bursts
system.mem_ctrls2.perBankWrBursts::13            3822                       # Per bank write bursts
system.mem_ctrls2.perBankWrBursts::14            3894                       # Per bank write bursts
system.mem_ctrls2.perBankWrBursts::15            3838                       # Per bank write bursts
system.mem_ctrls2.numRdRetry                        0                       # Number of times read queue was full causing retry
system.mem_ctrls2.numWrRetry                      106                       # Number of times write queue was full causing retry
system.mem_ctrls2.totGap                  38080403500                       # Total gap between requests
system.mem_ctrls2.readPktSize::0                    0                       # Read request sizes (log2)
system.mem_ctrls2.readPktSize::1                    0                       # Read request sizes (log2)
system.mem_ctrls2.readPktSize::2                    0                       # Read request sizes (log2)
system.mem_ctrls2.readPktSize::3                    0                       # Read request sizes (log2)
system.mem_ctrls2.readPktSize::4                    0                       # Read request sizes (log2)
system.mem_ctrls2.readPktSize::5                    0                       # Read request sizes (log2)
system.mem_ctrls2.readPktSize::6                76273                       # Read request sizes (log2)
system.mem_ctrls2.writePktSize::0                   0                       # Write request sizes (log2)
system.mem_ctrls2.writePktSize::1                   0                       # Write request sizes (log2)
system.mem_ctrls2.writePktSize::2                   0                       # Write request sizes (log2)
system.mem_ctrls2.writePktSize::3                   0                       # Write request sizes (log2)
system.mem_ctrls2.writePktSize::4                   0                       # Write request sizes (log2)
system.mem_ctrls2.writePktSize::5                   0                       # Write request sizes (log2)
system.mem_ctrls2.writePktSize::6               60729                       # Write request sizes (log2)
system.mem_ctrls2.rdQLenPdf::0                  59531                       # What read queue length does an incoming req see
system.mem_ctrls2.rdQLenPdf::1                  10085                       # What read queue length does an incoming req see
system.mem_ctrls2.rdQLenPdf::2                   3249                       # What read queue length does an incoming req see
system.mem_ctrls2.rdQLenPdf::3                   1336                       # What read queue length does an incoming req see
system.mem_ctrls2.rdQLenPdf::4                    721                       # What read queue length does an incoming req see
system.mem_ctrls2.rdQLenPdf::5                    451                       # What read queue length does an incoming req see
system.mem_ctrls2.rdQLenPdf::6                    264                       # What read queue length does an incoming req see
system.mem_ctrls2.rdQLenPdf::7                    163                       # What read queue length does an incoming req see
system.mem_ctrls2.rdQLenPdf::8                     96                       # What read queue length does an incoming req see
system.mem_ctrls2.rdQLenPdf::9                     64                       # What read queue length does an incoming req see
system.mem_ctrls2.rdQLenPdf::10                    58                       # What read queue length does an incoming req see
system.mem_ctrls2.rdQLenPdf::11                    47                       # What read queue length does an incoming req see
system.mem_ctrls2.rdQLenPdf::12                    30                       # What read queue length does an incoming req see
system.mem_ctrls2.rdQLenPdf::13                    29                       # What read queue length does an incoming req see
system.mem_ctrls2.rdQLenPdf::14                    27                       # What read queue length does an incoming req see
system.mem_ctrls2.rdQLenPdf::15                    21                       # What read queue length does an incoming req see
system.mem_ctrls2.rdQLenPdf::16                    25                       # What read queue length does an incoming req see
system.mem_ctrls2.rdQLenPdf::17                    20                       # What read queue length does an incoming req see
system.mem_ctrls2.rdQLenPdf::18                    12                       # What read queue length does an incoming req see
system.mem_ctrls2.rdQLenPdf::19                    10                       # What read queue length does an incoming req see
system.mem_ctrls2.rdQLenPdf::20                     4                       # What read queue length does an incoming req see
system.mem_ctrls2.rdQLenPdf::21                     3                       # What read queue length does an incoming req see
system.mem_ctrls2.rdQLenPdf::22                     4                       # What read queue length does an incoming req see
system.mem_ctrls2.rdQLenPdf::23                     5                       # What read queue length does an incoming req see
system.mem_ctrls2.rdQLenPdf::24                     2                       # What read queue length does an incoming req see
system.mem_ctrls2.rdQLenPdf::25                     1                       # What read queue length does an incoming req see
system.mem_ctrls2.rdQLenPdf::26                     0                       # What read queue length does an incoming req see
system.mem_ctrls2.rdQLenPdf::27                     0                       # What read queue length does an incoming req see
system.mem_ctrls2.rdQLenPdf::28                     0                       # What read queue length does an incoming req see
system.mem_ctrls2.rdQLenPdf::29                     0                       # What read queue length does an incoming req see
system.mem_ctrls2.rdQLenPdf::30                     0                       # What read queue length does an incoming req see
system.mem_ctrls2.rdQLenPdf::31                     0                       # What read queue length does an incoming req see
system.mem_ctrls2.wrQLenPdf::0                  11346                       # What write queue length does an incoming req see
system.mem_ctrls2.wrQLenPdf::1                  12423                       # What write queue length does an incoming req see
system.mem_ctrls2.wrQLenPdf::2                  12346                       # What write queue length does an incoming req see
system.mem_ctrls2.wrQLenPdf::3                  12084                       # What write queue length does an incoming req see
system.mem_ctrls2.wrQLenPdf::4                  11763                       # What write queue length does an incoming req see
system.mem_ctrls2.wrQLenPdf::5                    426                       # What write queue length does an incoming req see
system.mem_ctrls2.wrQLenPdf::6                    154                       # What write queue length does an incoming req see
system.mem_ctrls2.wrQLenPdf::7                    187                       # What write queue length does an incoming req see
system.mem_ctrls2.bytesPerActivate::samples        50963                       # Bytes accessed per row activation
system.mem_ctrls2.bytesPerActivate::mean   171.999922                       # Bytes accessed per row activation
system.mem_ctrls2.bytesPerActivate::gmean   121.777214                       # Bytes accessed per row activation
system.mem_ctrls2.bytesPerActivate::stdev   178.275252                       # Bytes accessed per row activation
system.mem_ctrls2.bytesPerActivate::0-127        25741     50.51%     50.51% # Bytes accessed per row activation
system.mem_ctrls2.bytesPerActivate::128-255        12748     25.01%     75.52% # Bytes accessed per row activation
system.mem_ctrls2.bytesPerActivate::256-383         7536     14.79%     90.31% # Bytes accessed per row activation
system.mem_ctrls2.bytesPerActivate::384-511         1870      3.67%     93.98% # Bytes accessed per row activation
system.mem_ctrls2.bytesPerActivate::512-639         1141      2.24%     96.22% # Bytes accessed per row activation
system.mem_ctrls2.bytesPerActivate::640-767          596      1.17%     97.39% # Bytes accessed per row activation
system.mem_ctrls2.bytesPerActivate::768-895          426      0.84%     98.22% # Bytes accessed per row activation
system.mem_ctrls2.bytesPerActivate::896-1023          299      0.59%     98.81% # Bytes accessed per row activation
system.mem_ctrls2.bytesPerActivate::1024-1151          606      1.19%    100.00% # Bytes accessed per row activation
system.mem_ctrls2.bytesPerActivate::total        50963                       # Bytes accessed per row activation
system.mem_ctrls2.rdPerTurnAround::samples        11361                       # Reads before turning the bus around for writes
system.mem_ctrls2.rdPerTurnAround::mean      6.711909                       # Reads before turning the bus around for writes
system.mem_ctrls2.rdPerTurnAround::stdev    29.922150                       # Reads before turning the bus around for writes
system.mem_ctrls2.rdPerTurnAround::0-127        11356     99.96%     99.96% # Reads before turning the bus around for writes
system.mem_ctrls2.rdPerTurnAround::128-255            3      0.03%     99.98% # Reads before turning the bus around for writes
system.mem_ctrls2.rdPerTurnAround::1152-1279            1      0.01%     99.99% # Reads before turning the bus around for writes
system.mem_ctrls2.rdPerTurnAround::2816-2943            1      0.01%    100.00% # Reads before turning the bus around for writes
system.mem_ctrls2.rdPerTurnAround::total        11361                       # Reads before turning the bus around for writes
system.mem_ctrls2.wrPerTurnAround::samples        11361                       # Writes before turning the bus around for reads
system.mem_ctrls2.wrPerTurnAround::mean      5.345304                       # Writes before turning the bus around for reads
system.mem_ctrls2.wrPerTurnAround::gmean     5.272971                       # Writes before turning the bus around for reads
system.mem_ctrls2.wrPerTurnAround::stdev     1.094897                       # Writes before turning the bus around for reads
system.mem_ctrls2.wrPerTurnAround::4-7          10906     96.00%     96.00% # Writes before turning the bus around for reads
system.mem_ctrls2.wrPerTurnAround::8-11           374      3.29%     99.29% # Writes before turning the bus around for reads
system.mem_ctrls2.wrPerTurnAround::12-15           64      0.56%     99.85% # Writes before turning the bus around for reads
system.mem_ctrls2.wrPerTurnAround::16-19           17      0.15%    100.00% # Writes before turning the bus around for reads
system.mem_ctrls2.wrPerTurnAround::total        11361                       # Writes before turning the bus around for reads
system.mem_ctrls2.totQLat                  1778068392                       # Total ticks spent queuing
system.mem_ctrls2.totMemAccLat             3207905892                       # Total ticks spent from burst creation until serviced by the DRAM
system.mem_ctrls2.totBusLat                 381290000                       # Total ticks spent in databus transfers
system.mem_ctrls2.avgQLat                    23316.48                       # Average queueing delay per DRAM burst
system.mem_ctrls2.avgBusLat                   5000.00                       # Average bus latency per DRAM burst
system.mem_ctrls2.avgMemAccLat               42066.48                       # Average memory access latency per DRAM burst
system.mem_ctrls2.avgRdBW                      128.16                       # Average DRAM read bandwidth in MiByte/s
system.mem_ctrls2.avgWrBW                      102.06                       # Average achieved write bandwidth in MiByte/s
system.mem_ctrls2.avgRdBWSys                   128.19                       # Average system read bandwidth in MiByte/s
system.mem_ctrls2.avgWrBWSys                   102.06                       # Average system write bandwidth in MiByte/s
system.mem_ctrls2.peakBW                     12800.00                       # Theoretical peak bandwidth in MiByte/s
system.mem_ctrls2.busUtil                        1.80                       # Data bus utilization in percentage
system.mem_ctrls2.busUtilRead                    1.00                       # Data bus utilization in percentage for reads
system.mem_ctrls2.busUtilWrite                   0.80                       # Data bus utilization in percentage for writes
system.mem_ctrls2.avgRdQLen                      1.07                       # Average read queue length when enqueuing
system.mem_ctrls2.avgWrQLen                      2.93                       # Average write queue length when enqueuing
system.mem_ctrls2.readRowHits                   52640                       # Number of row buffer hits during reads
system.mem_ctrls2.writeRowHits                  33374                       # Number of row buffer hits during writes
system.mem_ctrls2.readRowHitRate                69.03                       # Row buffer hit rate for reads
system.mem_ctrls2.writeRowHitRate               54.96                       # Row buffer hit rate for writes
system.mem_ctrls2.avgGap                    277955.09                       # Average gap between requests
system.mem_ctrls2.pageHitRate                   62.79                       # Row buffer hit rate, read and write combined
system.mem_ctrls2.memoryStateTime::IDLE    8906925250                       # Time in different power states
system.mem_ctrls2.memoryStateTime::REF     1271400000                       # Time in different power states
system.mem_ctrls2.memoryStateTime::PRE_PDN            0                       # Time in different power states
system.mem_ctrls2.memoryStateTime::ACT    27896711000                       # Time in different power states
system.mem_ctrls2.memoryStateTime::ACT_PDN            0                       # Time in different power states
system.mem_ctrls2.actEnergy::0              193422600                       # Energy for activate commands per rank (pJ)
system.mem_ctrls2.actEnergy::1              191819880                       # Energy for activate commands per rank (pJ)
system.mem_ctrls2.preEnergy::0              105538125                       # Energy for precharge commands per rank (pJ)
system.mem_ctrls2.preEnergy::1              104663625                       # Energy for precharge commands per rank (pJ)
system.mem_ctrls2.readEnergy::0             300526200                       # Energy for read commands per rank (pJ)
system.mem_ctrls2.readEnergy::1             294138000                       # Energy for read commands per rank (pJ)
system.mem_ctrls2.writeEnergy::0            196000560                       # Energy for write commands per rank (pJ)
system.mem_ctrls2.writeEnergy::1            197452080                       # Energy for write commands per rank (pJ)
system.mem_ctrls2.refreshEnergy::0         2486858400                       # Energy for refresh commands per rank (pJ)
system.mem_ctrls2.refreshEnergy::1         2486858400                       # Energy for refresh commands per rank (pJ)
system.mem_ctrls2.actBackEnergy::0        15061494465                       # Energy for active background per rank (pJ)
system.mem_ctrls2.actBackEnergy::1        14574404385                       # Energy for active background per rank (pJ)
system.mem_ctrls2.preBackEnergy::0         9633176250                       # Energy for precharge background per rank (pJ)
system.mem_ctrls2.preBackEnergy::1        10060448250                       # Energy for precharge background per rank (pJ)
system.mem_ctrls2.totalEnergy::0          27977016600                       # Total energy per rank (pJ)
system.mem_ctrls2.totalEnergy::1          27909784620                       # Total energy per rank (pJ)
system.mem_ctrls2.averagePower::0          734.786607                       # Core power per rank (mW)
system.mem_ctrls2.averagePower::1          733.020831                       # Core power per rank (mW)
system.mem_ctrls3.bytes_read::ruby.dir_cntrl3      4858112                       # Number of bytes read from this memory
system.mem_ctrls3.bytes_read::total           4858112                       # Number of bytes read from this memory
system.mem_ctrls3.bytes_written::ruby.dir_cntrl3      3879936                       # Number of bytes written to this memory
system.mem_ctrls3.bytes_written::total        3879936                       # Number of bytes written to this memory
system.mem_ctrls3.num_reads::ruby.dir_cntrl3        75908                       # Number of read requests responded to by this memory
system.mem_ctrls3.num_reads::total              75908                       # Number of read requests responded to by this memory
system.mem_ctrls3.num_writes::ruby.dir_cntrl3        60624                       # Number of write requests responded to by this memory
system.mem_ctrls3.num_writes::total             60624                       # Number of write requests responded to by this memory
system.mem_ctrls3.bw_read::ruby.dir_cntrl3    127574343                       # Total read bandwidth from this memory (bytes/s)
system.mem_ctrls3.bw_read::total            127574343                       # Total read bandwidth from this memory (bytes/s)
system.mem_ctrls3.bw_write::ruby.dir_cntrl3    101887377                       # Write bandwidth from this memory (bytes/s)
system.mem_ctrls3.bw_write::total           101887377                       # Write bandwidth from this memory (bytes/s)
system.mem_ctrls3.bw_total::ruby.dir_cntrl3    229461720                       # Total bandwidth to/from this memory (bytes/s)
system.mem_ctrls3.bw_total::total           229461720                       # Total bandwidth to/from this memory (bytes/s)
system.mem_ctrls3.readReqs                      75909                       # Number of read requests accepted
system.mem_ctrls3.writeReqs                     60624                       # Number of write requests accepted
system.mem_ctrls3.readBursts                    75909                       # Number of DRAM read bursts, including those serviced by the write queue
system.mem_ctrls3.writeBursts                   60624                       # Number of DRAM write bursts, including those merged in the write queue
system.mem_ctrls3.bytesReadDRAM               4857600                       # Total number of bytes read from DRAM
system.mem_ctrls3.bytesReadWrQ                    576                       # Total number of bytes read from write queue
system.mem_ctrls3.bytesWritten                3879680                       # Total number of bytes written to DRAM
system.mem_ctrls3.bytesReadSys                4858176                       # Total read bytes from the system interface side
system.mem_ctrls3.bytesWrittenSys             3879936                       # Total written bytes from the system interface side
system.mem_ctrls3.servicedByWrQ                     9                       # Number of DRAM read bursts serviced by the write queue
system.mem_ctrls3.mergedWrBursts                    0                       # Number of DRAM write bursts merged with an existing one
system.mem_ctrls3.neitherReadNorWriteReqs            0                       # Number of requests that are neither read nor write
system.mem_ctrls3.perBankRdBursts::0             4296                       # Per bank write bursts
system.mem_ctrls3.perBankRdBursts::1             4714                       # Per bank write bursts
system.mem_ctrls3.perBankRdBursts::2             4416                       # Per bank write bursts
system.mem_ctrls3.perBankRdBursts::3             4861                       # Per bank write bursts
system.mem_ctrls3.perBankRdBursts::4             4737                       # Per bank write bursts
system.mem_ctrls3.perBankRdBursts::5             5243                       # Per bank write bursts
system.mem_ctrls3.perBankRdBursts::6             4866                       # Per bank write bursts
system.mem_ctrls3.perBankRdBursts::7             5150                       # Per bank write bursts
system.mem_ctrls3.perBankRdBursts::8             4921                       # Per bank write bursts
system.mem_ctrls3.perBankRdBursts::9             5076                       # Per bank write bursts
system.mem_ctrls3.perBankRdBursts::10            4518                       # Per bank write bursts
system.mem_ctrls3.perBankRdBursts::11            4731                       # Per bank write bursts
system.mem_ctrls3.perBankRdBursts::12            4482                       # Per bank write bursts
system.mem_ctrls3.perBankRdBursts::13            4517                       # Per bank write bursts
system.mem_ctrls3.perBankRdBursts::14            4644                       # Per bank write bursts
system.mem_ctrls3.perBankRdBursts::15            4728                       # Per bank write bursts
system.mem_ctrls3.perBankWrBursts::0             3553                       # Per bank write bursts
system.mem_ctrls3.perBankWrBursts::1             3501                       # Per bank write bursts
system.mem_ctrls3.perBankWrBursts::2             3564                       # Per bank write bursts
system.mem_ctrls3.perBankWrBursts::3             3718                       # Per bank write bursts
system.mem_ctrls3.perBankWrBursts::4             3786                       # Per bank write bursts
system.mem_ctrls3.perBankWrBursts::5             4103                       # Per bank write bursts
system.mem_ctrls3.perBankWrBursts::6             3842                       # Per bank write bursts
system.mem_ctrls3.perBankWrBursts::7             4105                       # Per bank write bursts
system.mem_ctrls3.perBankWrBursts::8             3970                       # Per bank write bursts
system.mem_ctrls3.perBankWrBursts::9             4036                       # Per bank write bursts
system.mem_ctrls3.perBankWrBursts::10            3603                       # Per bank write bursts
system.mem_ctrls3.perBankWrBursts::11            3581                       # Per bank write bursts
system.mem_ctrls3.perBankWrBursts::12            3716                       # Per bank write bursts
system.mem_ctrls3.perBankWrBursts::13            3823                       # Per bank write bursts
system.mem_ctrls3.perBankWrBursts::14            3893                       # Per bank write bursts
system.mem_ctrls3.perBankWrBursts::15            3826                       # Per bank write bursts
system.mem_ctrls3.numRdRetry                        2                       # Number of times read queue was full causing retry
system.mem_ctrls3.numWrRetry                      111                       # Number of times write queue was full causing retry
system.mem_ctrls3.totGap                  38079894500                       # Total gap between requests
system.mem_ctrls3.readPktSize::0                    0                       # Read request sizes (log2)
system.mem_ctrls3.readPktSize::1                    0                       # Read request sizes (log2)
system.mem_ctrls3.readPktSize::2                    0                       # Read request sizes (log2)
system.mem_ctrls3.readPktSize::3                    0                       # Read request sizes (log2)
system.mem_ctrls3.readPktSize::4                    0                       # Read request sizes (log2)
system.mem_ctrls3.readPktSize::5                    0                       # Read request sizes (log2)
system.mem_ctrls3.readPktSize::6                75909                       # Read request sizes (log2)
system.mem_ctrls3.writePktSize::0                   0                       # Write request sizes (log2)
system.mem_ctrls3.writePktSize::1                   0                       # Write request sizes (log2)
system.mem_ctrls3.writePktSize::2                   0                       # Write request sizes (log2)
system.mem_ctrls3.writePktSize::3                   0                       # Write request sizes (log2)
system.mem_ctrls3.writePktSize::4                   0                       # Write request sizes (log2)
system.mem_ctrls3.writePktSize::5                   0                       # Write request sizes (log2)
system.mem_ctrls3.writePktSize::6               60624                       # Write request sizes (log2)
system.mem_ctrls3.rdQLenPdf::0                  59202                       # What read queue length does an incoming req see
system.mem_ctrls3.rdQLenPdf::1                  10159                       # What read queue length does an incoming req see
system.mem_ctrls3.rdQLenPdf::2                   3247                       # What read queue length does an incoming req see
system.mem_ctrls3.rdQLenPdf::3                   1313                       # What read queue length does an incoming req see
system.mem_ctrls3.rdQLenPdf::4                    708                       # What read queue length does an incoming req see
system.mem_ctrls3.rdQLenPdf::5                    435                       # What read queue length does an incoming req see
system.mem_ctrls3.rdQLenPdf::6                    263                       # What read queue length does an incoming req see
system.mem_ctrls3.rdQLenPdf::7                    146                       # What read queue length does an incoming req see
system.mem_ctrls3.rdQLenPdf::8                     83                       # What read queue length does an incoming req see
system.mem_ctrls3.rdQLenPdf::9                     72                       # What read queue length does an incoming req see
system.mem_ctrls3.rdQLenPdf::10                    47                       # What read queue length does an incoming req see
system.mem_ctrls3.rdQLenPdf::11                    37                       # What read queue length does an incoming req see
system.mem_ctrls3.rdQLenPdf::12                    31                       # What read queue length does an incoming req see
system.mem_ctrls3.rdQLenPdf::13                    28                       # What read queue length does an incoming req see
system.mem_ctrls3.rdQLenPdf::14                    20                       # What read queue length does an incoming req see
system.mem_ctrls3.rdQLenPdf::15                    21                       # What read queue length does an incoming req see
system.mem_ctrls3.rdQLenPdf::16                    15                       # What read queue length does an incoming req see
system.mem_ctrls3.rdQLenPdf::17                    11                       # What read queue length does an incoming req see
system.mem_ctrls3.rdQLenPdf::18                    12                       # What read queue length does an incoming req see
system.mem_ctrls3.rdQLenPdf::19                    10                       # What read queue length does an incoming req see
system.mem_ctrls3.rdQLenPdf::20                     8                       # What read queue length does an incoming req see
system.mem_ctrls3.rdQLenPdf::21                     8                       # What read queue length does an incoming req see
system.mem_ctrls3.rdQLenPdf::22                     3                       # What read queue length does an incoming req see
system.mem_ctrls3.rdQLenPdf::23                     3                       # What read queue length does an incoming req see
system.mem_ctrls3.rdQLenPdf::24                     4                       # What read queue length does an incoming req see
[...]
system.ruby.L2Cache_Controller.MT_IIB.WB_Data_clean::total        20438                      
system.ruby.L2Cache_Controller.MT_IIB.Unblock |          39      0.64%      0.64% |          54      0.89%      1.53% |         159      2.62%      4.15% |         218      3.59%      7.75% |         105      1.73%      9.48% |         196      3.23%     12.71% |         237      3.91%     16.61% |         209      3.44%     20.06% |         253      4.17%     24.23% |         221      3.64%     27.87% |         165      2.72%     30.59% |         245      4.04%     34.63% |         173      2.85%     37.48% |         187      3.08%     40.56% |         153      2.52%     43.09% |         125      2.06%     45.15% |         204      3.36%     48.51% |         207      3.41%     51.92% |         214      3.53%     55.45% |         214      3.53%     58.97% |         228      3.76%     62.73% |         205      3.38%     66.11% |         181      2.98%     69.10% |         195      3.21%     72.31% |         250      4.12%     76.43% |         140      2.31%     78.74% |         203      3.35%     82.08% |         187      3.08%     85.17% |         152      2.51%     87.67% |         292      4.81%     92.48% |         167      2.75%     95.24% |         289      4.76%    100.00%
system.ruby.L2Cache_Controller.MT_IIB.Unblock::total         6067                      
system.ruby.L2Cache_Controller.MT_IB.L1_GETS |           0      0.00%      0.00% |           0      0.00%      0.00% |           0      0.00%      0.00% |           2     40.00%     40.00% |           0      0.00%     40.00% |           0      0.00%     40.00% |           0      0.00%     40.00% |           1     20.00%     60.00% |           0      0.00%     60.00% |           0      0.00%     60.00% |           0      0.00%     60.00% |           0      0.00%     60.00% |           0      0.00%     60.00% |           0      0.00%     60.00% |           0      0.00%     60.00% |           0      0.00%     60.00% |           0      0.00%     60.00% |           0      0.00%     60.00% |           0      0.00%     60.00% |           0      0.00%     60.00% |           0      0.00%     60.00% |           0      0.00%     60.00% |           0      0.00%     60.00% |           0      0.00%     60.00% |           0      0.00%     60.00% |           0      0.00%     60.00% |           1     20.00%     80.00% |           0      0.00%     80.00% |           0      0.00%     80.00% |           1     20.00%    100.00% |           0      0.00%    100.00% |           0      0.00%    100.00%
system.ruby.L2Cache_Controller.MT_IB.L1_GETS::total            5                      
system.ruby.L2Cache_Controller.MT_IB.L1_GETX |           0      0.00%      0.00% |           0      0.00%      0.00% |           0      0.00%      0.00% |           0      0.00%      0.00% |           0      0.00%      0.00% |           0      0.00%      0.00% |           0      0.00%      0.00% |           0      0.00%      0.00% |           0      0.00%      0.00% |           0      0.00%      0.00% |           0      0.00%      0.00% |           1     50.00%     50.00% |           0      0.00%     50.00% |           0      0.00%     50.00% |           0      0.00%     50.00% |           0      0.00%     50.00% |           0      0.00%     50.00% |           0      0.00%     50.00% |           0      0.00%     50.00% |           0      0.00%     50.00% |           0      0.00%     50.00% |           0      0.00%     50.00% |           0      0.00%     50.00% |           0      0.00%     50.00% |           0      0.00%     50.00% |           0      0.00%     50.00% |           1     50.00%    100.00% |           0      0.00%    100.00% |           0      0.00%    100.00% |           0      0.00%    100.00% |           0      0.00%    100.00% |           0      0.00%    100.00%
system.ruby.L2Cache_Controller.MT_IB.L1_GETX::total            2                      
system.ruby.L2Cache_Controller.MT_IB.L1_UPGRADE |           0      0.00%      0.00% |           0      0.00%      0.00% |           0      0.00%      0.00% |           0      0.00%      0.00% |           0      0.00%      0.00% |           0      0.00%      0.00% |           2     12.50%     12.50% |           1      6.25%     18.75% |           0      0.00%     18.75% |           0      0.00%     18.75% |           0      0.00%     18.75% |           0      0.00%     18.75% |           2     12.50%     31.25% |           0      0.00%     31.25% |           0      0.00%     31.25% |           0      0.00%     31.25% |           0      0.00%     31.25% |           0      0.00%     31.25% |           1      6.25%     37.50% |           0      0.00%     37.50% |           1      6.25%     43.75% |           2     12.50%     56.25% |           0      0.00%     56.25% |           1      6.25%     62.50% |           1      6.25%     68.75% |           1      6.25%     75.00% |           2     12.50%     87.50% |           1      6.25%     93.75% |           0      0.00%     93.75% |           0      0.00%     93.75% |           1      6.25%    100.00% |           0      0.00%    100.00%
system.ruby.L2Cache_Controller.MT_IB.L1_UPGRADE::total           16                      
system.ruby.L2Cache_Controller.MT_IB.WB_Data |          36      0.63%      0.63% |          52      0.91%      1.54% |         153      2.68%      4.22% |         202      3.53%      7.75% |         101      1.77%      9.52% |         180      3.15%     12.67% |         229      4.01%     16.68% |         204      3.57%     20.24% |         234      4.09%     24.34% |         206      3.60%     27.94% |         158      2.76%     30.71% |         229      4.01%     34.72% |         160      2.80%     37.52% |         175      3.06%     40.58% |         145      2.54%     43.11% |         119      2.08%     45.20% |         192      3.36%     48.56% |         193      3.38%     51.93% |         199      3.48%     55.42% |         196      3.43%     58.85% |         217      3.80%     62.64% |         195      3.41%     66.05% |         171      2.99%     69.05% |         186      3.25%     72.30% |         241      4.22%     76.52% |         132      2.31%     78.83% |         190      3.32%     82.15% |         180      3.15%     85.30% |         147      2.57%     87.87% |         270      4.72%     92.60% |         162      2.83%     95.43% |         261      4.57%    100.00%
system.ruby.L2Cache_Controller.MT_IB.WB_Data::total         5715                      
system.ruby.L2Cache_Controller.MT_IB.WB_Data_clean |           3      0.85%      0.85% |           2      0.57%      1.42% |           6      1.70%      3.12% |          16      4.55%      7.67% |           4      1.14%      8.81% |          16      4.55%     13.35% |           8      2.27%     15.63% |           5      1.42%     17.05% |          19      5.40%     22.44% |          15      4.26%     26.70% |           7      1.99%     28.69% |          16      4.55%     33.24% |          13      3.69%     36.93% |          12      3.41%     40.34% |           8      2.27%     42.61% |           6      1.70%     44.32% |          12      3.41%     47.73% |          14      3.98%     51.70% |          15      4.26%     55.97% |          18      5.11%     61.08% |          11      3.12%     64.20% |          10      2.84%     67.05% |          10      2.84%     69.89% |           9      2.56%     72.44% |           9      2.56%     75.00% |           8      2.27%     77.27% |          13      3.69%     80.97% |           7      1.99%     82.95% |           5      1.42%     84.38% |          22      6.25%     90.62% |           5      1.42%     92.05% |          28      7.95%    100.00%
system.ruby.L2Cache_Controller.MT_IB.WB_Data_clean::total          352                      
system.ruby.L2Cache_Controller.MT_SB.L1_GETS |          25      2.70%      2.70% |          28      3.02%      5.72% |          28      3.02%      8.75% |          28      3.02%     11.77% |          30      3.24%     15.01% |          32      3.46%     18.47% |          30      3.24%     21.71% |          33      3.56%     25.27% |          31      3.35%     28.62% |          32      3.46%     32.07% |          21      2.27%     34.34% |          26      2.81%     37.15% |          23      2.48%     39.63% |          31      3.35%     42.98% |          23      2.48%     45.46% |          29      3.13%     48.60% |          23      2.48%     51.08% |          26      2.81%     53.89% |          37      4.00%     57.88% |          24      2.59%     60.48% |          29      3.13%     63.61% |          31      3.35%     66.95% |          25      2.70%     69.65% |          25      2.70%     72.35% |          37      4.00%     76.35% |          31      3.35%     79.70% |          31      3.35%     83.05% |          34      3.67%     86.72% |          28      3.02%     89.74% |          31      3.35%     93.09% |          36      3.89%     96.98% |          28      3.02%    100.00%
system.ruby.L2Cache_Controller.MT_SB.L1_GETS::total          926                      
system.ruby.L2Cache_Controller.MT_SB.L1_GETX |          18      3.45%      3.45% |          12      2.30%      5.75% |          14      2.68%      8.43% |          12      2.30%     10.73% |          17      3.26%     13.98% |          22      4.21%     18.20% |          18      3.45%     21.65% |          15      2.87%     24.52% |          12      2.30%     26.82% |          18      3.45%     30.27% |          19      3.64%     33.91% |          15      2.87%     36.78% |          12      2.30%     39.08% |          18      3.45%     42.53% |          16      3.07%     45.59% |          17      3.26%     48.85% |          11      2.11%     50.96% |          15      2.87%     53.83% |          15      2.87%     56.70% |          23      4.41%     61.11% |          15      2.87%     63.98% |          15      2.87%     66.86% |          21      4.02%     70.88% |          13      2.49%     73.37% |          16      3.07%     76.44% |          15      2.87%     79.31% |          15      2.87%     82.18% |          21      4.02%     86.21% |          15      2.87%     89.08% |          16      3.07%     92.15% |          23      4.41%     96.55% |          18      3.45%    100.00%
system.ruby.L2Cache_Controller.MT_SB.L1_GETX::total          522                      
system.ruby.L2Cache_Controller.MT_SB.L1_UPGRADE |           6      2.24%      2.24% |          10      3.73%      5.97% |          18      6.72%     12.69% |          14      5.22%     17.91% |           4      1.49%     19.40% |           6      2.24%     21.64% |          11      4.10%     25.75% |           5      1.87%     27.61% |           6      2.24%     29.85% |           6      2.24%     32.09% |           9      3.36%     35.45% |          10      3.73%     39.18% |          12      4.48%     43.66% |          12      4.48%     48.13% |           5      1.87%     50.00% |           6      2.24%     52.24% |          10      3.73%     55.97% |           7      2.61%     58.58% |           5      1.87%     60.45% |          10      3.73%     64.18% |           7      2.61%     66.79% |          10      3.73%     70.52% |           7      2.61%     73.13% |           6      2.24%     75.37% |          11      4.10%     79.48% |           6      2.24%     81.72% |           7      2.61%     84.33% |          12      4.48%     88.81% |           5      1.87%     90.67% |           6      2.24%     92.91% |           7      2.61%     95.52% |          12      4.48%    100.00%
system.ruby.L2Cache_Controller.MT_SB.L1_UPGRADE::total          268                      
system.ruby.L2Cache_Controller.MT_SB.L1_PUTX |           0      0.00%      0.00% |           0      0.00%      0.00% |           0      0.00%      0.00% |           0      0.00%      0.00% |           0      0.00%      0.00% |           0      0.00%      0.00% |           0      0.00%      0.00% |           0      0.00%      0.00% |           0      0.00%      0.00% |           0      0.00%      0.00% |           0      0.00%      0.00% |           0      0.00%      0.00% |           0      0.00%      0.00% |           0      0.00%      0.00% |           0      0.00%      0.00% |           0      0.00%      0.00% |           0      0.00%      0.00% |           0      0.00%      0.00% |           0      0.00%      0.00% |           0      0.00%      0.00% |           0      0.00%      0.00% |           0      0.00%      0.00% |           0      0.00%      0.00% |           0      0.00%      0.00% |           0      0.00%      0.00% |           0      0.00%      0.00% |           1    100.00%    100.00% |           0      0.00%    100.00% |           0      0.00%    100.00% |           0      0.00%    100.00% |           0      0.00%    100.00% |           0      0.00%    100.00%
system.ruby.L2Cache_Controller.MT_SB.L1_PUTX::total            1                      
system.ruby.L2Cache_Controller.MT_SB.Unblock |        7385      3.25%      3.25% |        7155      3.15%      6.41% |        7098      3.13%      9.54% |        6985      3.08%     12.61% |        7387      3.26%     15.87% |        7055      3.11%     18.98% |        7018      3.09%     22.07% |        7059      3.11%     25.18% |        7171      3.16%     28.34% |        7042      3.10%     31.44% |        7076      3.12%     34.56% |        7006      3.09%     37.65% |        7195      3.17%     40.82% |        7066      3.11%     43.93% |        7124      3.14%     47.07% |        7104      3.13%     50.20% |        7213      3.18%     53.38% |        7013      3.09%     56.47% |        7045      3.10%     59.58% |        6944      3.06%     62.64% |        7179      3.16%     65.80% |        6972      3.07%     68.87% |        7076      3.12%     71.99% |        7063      3.11%     75.10% |        7076      3.12%     78.22% |        7098      3.13%     81.35% |        6996      3.08%     84.43% |        7020      3.09%     87.53% |        7255      3.20%     90.72% |        6973      3.07%     93.80% |        7106      3.13%     96.93% |        6969      3.07%    100.00%
system.ruby.L2Cache_Controller.MT_SB.Unblock::total       226924                      
system.ruby.SimicsNetworkPortInterface_Controller.MessageSend |      328367     18.17%     18.17% |      903351     50.00%     68.17% |       71793      3.97%     72.15% |       77989      4.32%     76.47% |       72004      3.99%     80.45% |       77274      4.28%     84.73% |       73069      4.04%     88.77% |       76907      4.26%     93.03% |       60432      3.34%     96.37% |       65516      3.63%    100.00% |           0      0.00%    100.00% |           0      0.00%    100.00% |           0      0.00%    100.00% |           0      0.00%    100.00% |           0      0.00%    100.00% |           0      0.00%    100.00% |           0      0.00%    100.00% |           0      0.00%    100.00% |           0      0.00%    100.00% |           0      0.00%    100.00% |           0      0.00%    100.00% |           0      0.00%    100.00% |           0      0.00%    100.00% |           0      0.00%    100.00% |           0      0.00%    100.00% |           0      0.00%    100.00% |           0      0.00%    100.00% |           0      0.00%    100.00% |           0      0.00%    100.00% |           0      0.00%    100.00% |           0      0.00%    100.00% |           0      0.00%    100.00%
system.ruby.SimicsNetworkPortInterface_Controller.MessageSend::total      1806702                      
system.ruby.SimicsNetworkPortInterface_Controller.MessageRecv |      328367     18.17%     18.17% |      903351     50.00%     68.17% |       71793      3.97%     72.15% |       77989      4.32%     76.47% |       72004      3.99%     80.45% |       77274      4.28%     84.73% |       73069      4.04%     88.77% |       76907      4.26%     93.03% |       60432      3.34%     96.37% |       65516      3.63%    100.00% |           0      0.00%    100.00% |           0      0.00%    100.00% |           0      0.00%    100.00% |           0      0.00%    100.00% |           0      0.00%    100.00% |           0      0.00%    100.00% |           0      0.00%    100.00% |           0      0.00%    100.00% |           0      0.00%    100.00% |           0      0.00%    100.00% |           0      0.00%    100.00% |           0      0.00%    100.00% |           0      0.00%    100.00% |           0      0.00%    100.00% |           0      0.00%    100.00% |           0      0.00%    100.00% |           0      0.00%    100.00% |           0      0.00%    100.00% |           0      0.00%    100.00% |           0      0.00%    100.00% |           0      0.00%    100.00% |           0      0.00%    100.00%
system.ruby.SimicsNetworkPortInterface_Controller.MessageRecv::total      1806702                      
system.ruby.SimicsNetworkPortInterface_Controller.A.MessageSend |      328367     18.17%     18.17% |      903351     50.00%     68.17% |       71793      3.97%     72.15% |       77989      4.32%     76.47% |       72004      3.99%     80.45% |       77274      4.28%     84.73% |       73069      4.04%     88.77% |       76907      4.26%     93.03% |       60432      3.34%     96.37% |       65516      3.63%    100.00% |           0      0.00%    100.00% |           0      0.00%    100.00% |           0      0.00%    100.00% |           0      0.00%    100.00% |           0      0.00%    100.00% |           0      0.00%    100.00% |           0      0.00%    100.00% |           0      0.00%    100.00% |           0      0.00%    100.00% |           0      0.00%    100.00% |           0      0.00%    100.00% |           0      0.00%    100.00% |           0      0.00%    100.00% |           0      0.00%    100.00% |           0      0.00%    100.00% |           0      0.00%    100.00% |           0      0.00%    100.00% |           0      0.00%    100.00% |           0      0.00%    100.00% |           0      0.00%    100.00% |           0      0.00%    100.00% |           0      0.00%    100.00%
system.ruby.SimicsNetworkPortInterface_Controller.A.MessageSend::total      1806702                      
system.ruby.SimicsNetworkPortInterface_Controller.A.MessageRecv |      328367     18.17%     18.17% |      903351     50.00%     68.17% |       71793      3.97%     72.15% |       77989      4.32%     76.47% |       72004      3.99%     80.45% |       77274      4.28%     84.73% |       73069      4.04%     88.77% |       76907      4.26%     93.03% |       60432      3.34%     96.37% |       65516      3.63%    100.00% |           0      0.00%    100.00% |           0      0.00%    100.00% |           0      0.00%    100.00% |           0      0.00%    100.00% |           0      0.00%    100.00% |           0      0.00%    100.00% |           0      0.00%    100.00% |           0      0.00%    100.00% |           0      0.00%    100.00% |           0      0.00%    100.00% |           0      0.00%    100.00% |           0      0.00%    100.00% |           0      0.00%    100.00% |           0      0.00%    100.00% |           0      0.00%    100.00% |           0      0.00%    100.00% |           0      0.00%    100.00% |           0      0.00%    100.00% |           0      0.00%    100.00% |           0      0.00%    100.00% |           0      0.00%    100.00% |           0      0.00%    100.00%
system.ruby.SimicsNetworkPortInterface_Controller.A.MessageRecv::total      1806702                      
system.switch_cpus.kern.inst.arm                    0                       # number of arm instructions executed
system.switch_cpus.kern.inst.quiesce                0                       # number of quiesce instructions executed

---------- End Simulation Statistics   ----------
