
---------- Begin Simulation Statistics ----------
sim_seconds                                  0.119622                       # Number of seconds simulated
sim_ticks                                119622327500                       # Number of ticks simulated
final_tick                               5295790406000                       # Number of ticks from beginning of simulation (restored from checkpoints and never reset)
sim_freq                                 1000000000000                       # Frequency of simulated ticks
host_inst_rate                                  44397                       # Simulator instruction rate (inst/s)
host_op_rate                                    78630                       # Simulator op (including micro ops) rate (op/s)
host_tick_rate                               97259796                       # Simulator tick rate (ticks/s)
host_mem_usage                                6277900                       # Number of bytes of host memory used
host_seconds                                  1229.93                       # Real time elapsed on the host
sim_insts                                    54605387                       # Number of instructions simulated
sim_ops                                      96708660                       # Number of ops (including micro ops) simulated
system.voltage_domain.voltage                       1                       # Voltage in Volts
system.clk_domain.clock                           500                       # Clock period in ticks
system.mem_ctrls0.bytes_read::ruby.dir_cntrl0     42334720                       # Number of bytes read from this memory
system.mem_ctrls0.bytes_read::total          42334720                       # Number of bytes read from this memory
system.mem_ctrls0.bytes_written::ruby.dir_cntrl0     19965696                       # Number of bytes written to this memory
system.mem_ctrls0.bytes_written::total       19965696                       # Number of bytes written to this memory
system.mem_ctrls0.num_reads::ruby.dir_cntrl0       661480                       # Number of read requests responded to by this memory
system.mem_ctrls0.num_reads::total             661480                       # Number of read requests responded to by this memory
system.mem_ctrls0.num_writes::ruby.dir_cntrl0       311964                       # Number of write requests responded to by this memory
system.mem_ctrls0.num_writes::total            311964                       # Number of write requests responded to by this memory
system.mem_ctrls0.bw_read::ruby.dir_cntrl0    353903162                       # Total read bandwidth from this memory (bytes/s)
system.mem_ctrls0.bw_read::total            353903162                       # Total read bandwidth from this memory (bytes/s)
system.mem_ctrls0.bw_write::ruby.dir_cntrl0    166906099                       # Write bandwidth from this memory (bytes/s)
system.mem_ctrls0.bw_write::total           166906099                       # Write bandwidth from this memory (bytes/s)
system.mem_ctrls0.bw_total::ruby.dir_cntrl0    520809261                       # Total bandwidth to/from this memory (bytes/s)
system.mem_ctrls0.bw_total::total           520809261                       # Total bandwidth to/from this memory (bytes/s)
system.mem_ctrls0.readReqs                     661480                       # Number of read requests accepted
system.mem_ctrls0.writeReqs                    311964                       # Number of write requests accepted
system.mem_ctrls0.readBursts                   661480                       # Number of DRAM read bursts, including those serviced by the write queue
system.mem_ctrls0.writeBursts                  311964                       # Number of DRAM write bursts, including those merged in the write queue
system.mem_ctrls0.bytesReadDRAM              42315008                       # Total number of bytes read from DRAM
system.mem_ctrls0.bytesReadWrQ                  19712                       # Total number of bytes read from write queue
system.mem_ctrls0.bytesWritten               19965504                       # Total number of bytes written to DRAM
system.mem_ctrls0.bytesReadSys               42334720                       # Total read bytes from the system interface side
system.mem_ctrls0.bytesWrittenSys            19965696                       # Total written bytes from the system interface side
system.mem_ctrls0.servicedByWrQ                   308                       # Number of DRAM read bursts serviced by the write queue
system.mem_ctrls0.mergedWrBursts                    0                       # Number of DRAM write bursts merged with an existing one
system.mem_ctrls0.neitherReadNorWriteReqs            0                       # Number of requests that are neither read nor write
system.mem_ctrls0.perBankRdBursts::0            41210                       # Per bank write bursts
system.mem_ctrls0.perBankRdBursts::1            41549                       # Per bank write bursts
system.mem_ctrls0.perBankRdBursts::2            41008                       # Per bank write bursts
system.mem_ctrls0.perBankRdBursts::3            41628                       # Per bank write bursts
system.mem_ctrls0.perBankRdBursts::4            41148                       # Per bank write bursts
system.mem_ctrls0.perBankRdBursts::5            41153                       # Per bank write bursts
system.mem_ctrls0.perBankRdBursts::6            42116                       # Per bank write bursts
system.mem_ctrls0.perBankRdBursts::7            41546                       # Per bank write bursts
system.mem_ctrls0.perBankRdBursts::8            40844                       # Per bank write bursts
system.mem_ctrls0.perBankRdBursts::9            41269                       # Per bank write bursts
system.mem_ctrls0.perBankRdBursts::10           40968                       # Per bank write bursts
system.mem_ctrls0.perBankRdBursts::11           41709                       # Per bank write bursts
system.mem_ctrls0.perBankRdBursts::12           41053                       # Per bank write bursts
system.mem_ctrls0.perBankRdBursts::13           41038                       # Per bank write bursts
system.mem_ctrls0.perBankRdBursts::14           41559                       # Per bank write bursts
system.mem_ctrls0.perBankRdBursts::15           41374                       # Per bank write bursts
system.mem_ctrls0.perBankWrBursts::0            19410                       # Per bank write bursts
system.mem_ctrls0.perBankWrBursts::1            19581                       # Per bank write bursts
system.mem_ctrls0.perBankWrBursts::2            19475                       # Per bank write bursts
system.mem_ctrls0.perBankWrBursts::3            19632                       # Per bank write bursts
system.mem_ctrls0.perBankWrBursts::4            19498                       # Per bank write bursts
system.mem_ctrls0.perBankWrBursts::5            19375                       # Per bank write bursts
system.mem_ctrls0.perBankWrBursts::6            19709                       # Per bank write bursts
system.mem_ctrls0.perBankWrBursts::7            19666                       # Per bank write bursts
system.mem_ctrls0.perBankWrBursts::8            19348                       # Per bank write bursts
system.mem_ctrls0.perBankWrBursts::9            19628                       # Per bank write bursts
system.mem_ctrls0.perBankWrBursts::10           19371                       # Per bank write bursts
system.mem_ctrls0.perBankWrBursts::11           19549                       # Per bank write bursts
system.mem_ctrls0.perBankWrBursts::12           19432                       # Per bank write bursts
system.mem_ctrls0.perBankWrBursts::13           19289                       # Per bank write bursts
system.mem_ctrls0.perBankWrBursts::14           19592                       # Per bank write bursts
system.mem_ctrls0.perBankWrBursts::15           19406                       # Per bank write bursts
system.mem_ctrls0.numRdRetry                    61324                       # Number of times read queue was full causing retry
system.mem_ctrls0.numWrRetry                    11857                       # Number of times write queue was full causing retry
system.mem_ctrls0.totGap                 119621827500                       # Total gap between requests
system.mem_ctrls0.readPktSize::0                    0                       # Read request sizes (log2)
system.mem_ctrls0.readPktSize::1                    0                       # Read request sizes (log2)
system.mem_ctrls0.readPktSize::2                    0                       # Read request sizes (log2)
system.mem_ctrls0.readPktSize::3                    0                       # Read request sizes (log2)
system.mem_ctrls0.readPktSize::4                    0                       # Read request sizes (log2)
system.mem_ctrls0.readPktSize::5                    0                       # Read request sizes (log2)
system.mem_ctrls0.readPktSize::6               661480                       # Read request sizes (log2)
system.mem_ctrls0.writePktSize::0                   0                       # Write request sizes (log2)
system.mem_ctrls0.writePktSize::1                   0                       # Write request sizes (log2)
system.mem_ctrls0.writePktSize::2                   0                       # Write request sizes (log2)
system.mem_ctrls0.writePktSize::3                   0                       # Write request sizes (log2)
system.mem_ctrls0.writePktSize::4                   0                       # Write request sizes (log2)
system.mem_ctrls0.writePktSize::5                   0                       # Write request sizes (log2)
system.mem_ctrls0.writePktSize::6              311964                       # Write request sizes (log2)
system.mem_ctrls0.rdQLenPdf::0                 177895                       # What read queue length does an incoming req see
system.mem_ctrls0.rdQLenPdf::1                  23337                       # What read queue length does an incoming req see
system.mem_ctrls0.rdQLenPdf::2                  22256                       # What read queue length does an incoming req see
system.mem_ctrls0.rdQLenPdf::3                  22696                       # What read queue length does an incoming req see
system.mem_ctrls0.rdQLenPdf::4                  23116                       # What read queue length does an incoming req see
system.mem_ctrls0.rdQLenPdf::5                  23222                       # What read queue length does an incoming req see
system.mem_ctrls0.rdQLenPdf::6                  22841                       # What read queue length does an incoming req see
system.mem_ctrls0.rdQLenPdf::7                  22698                       # What read queue length does an incoming req see
system.mem_ctrls0.rdQLenPdf::8                  21372                       # What read queue length does an incoming req see
system.mem_ctrls0.rdQLenPdf::9                  20172                       # What read queue length does an incoming req see
system.mem_ctrls0.rdQLenPdf::10                 19272                       # What read queue length does an incoming req see
system.mem_ctrls0.rdQLenPdf::11                 17841                       # What read queue length does an incoming req see
system.mem_ctrls0.rdQLenPdf::12                 16628                       # What read queue length does an incoming req see
system.mem_ctrls0.rdQLenPdf::13                 15222                       # What read queue length does an incoming req see
system.mem_ctrls0.rdQLenPdf::14                 14309                       # What read queue length does an incoming req see
system.mem_ctrls0.rdQLenPdf::15                 13195                       # What read queue length does an incoming req see
system.mem_ctrls0.rdQLenPdf::16                 12191                       # What read queue length does an incoming req see
system.mem_ctrls0.rdQLenPdf::17                 11250                       # What read queue length does an incoming req see
system.mem_ctrls0.rdQLenPdf::18                 10492                       # What read queue length does an incoming req see
system.mem_ctrls0.rdQLenPdf::19                  9796                       # What read queue length does an incoming req see
system.mem_ctrls0.rdQLenPdf::20                  9126                       # What read queue length does an incoming req see
system.mem_ctrls0.rdQLenPdf::21                  8596                       # What read queue length does an incoming req see
system.mem_ctrls0.rdQLenPdf::22                  7958                       # What read queue length does an incoming req see
system.mem_ctrls0.rdQLenPdf::23                  7610                       # What read queue length does an incoming req see
system.mem_ctrls0.rdQLenPdf::24                  7074                       # What read queue length does an incoming req see
system.mem_ctrls0.rdQLenPdf::25                  6501                       # What read queue length does an incoming req see
system.mem_ctrls0.rdQLenPdf::26                  6090                       # What read queue length does an incoming req see
system.mem_ctrls0.rdQLenPdf::27                  5743                       # What read queue length does an incoming req see
system.mem_ctrls0.rdQLenPdf::28                  5431                       # What read queue length does an incoming req see
system.mem_ctrls0.rdQLenPdf::29                  5278                       # What read queue length does an incoming req see
system.mem_ctrls0.rdQLenPdf::30                  5155                       # What read queue length does an incoming req see
system.mem_ctrls0.rdQLenPdf::31                 66809                       # What read queue length does an incoming req see
system.mem_ctrls0.wrQLenPdf::0                  44932                       # What write queue length does an incoming req see
system.mem_ctrls0.wrQLenPdf::1                  50183                       # What write queue length does an incoming req see
system.mem_ctrls0.wrQLenPdf::2                  53071                       # What write queue length does an incoming req see
system.mem_ctrls0.wrQLenPdf::3                  54091                       # What write queue length does an incoming req see
system.mem_ctrls0.wrQLenPdf::4                  54461                       # What write queue length does an incoming req see
system.mem_ctrls0.wrQLenPdf::5                  17233                       # What write queue length does an incoming req see
system.mem_ctrls0.wrQLenPdf::6                  16091                       # What write queue length does an incoming req see
system.mem_ctrls0.wrQLenPdf::7                  21902                       # What write queue length does an incoming req see
system.mem_ctrls0.bytesPerActivate::samples       314628                       # Bytes accessed per row activation
system.mem_ctrls0.bytesPerActivate::mean   197.947443                       # Bytes accessed per row activation
system.mem_ctrls0.bytesPerActivate::gmean   151.645086                       # Bytes accessed per row activation
system.mem_ctrls0.bytesPerActivate::stdev   149.876933                       # Bytes accessed per row activation
system.mem_ctrls0.bytesPerActivate::0-127       105131     33.41%     33.41% # Bytes accessed per row activation
system.mem_ctrls0.bytesPerActivate::128-255        97364     30.95%     64.36% # Bytes accessed per row activation
system.mem_ctrls0.bytesPerActivate::256-383        73505     23.36%     87.72% # Bytes accessed per row activation
system.mem_ctrls0.bytesPerActivate::384-511        19272      6.13%     93.85% # Bytes accessed per row activation
system.mem_ctrls0.bytesPerActivate::512-639        14185      4.51%     98.36% # Bytes accessed per row activation
system.mem_ctrls0.bytesPerActivate::640-767         2702      0.86%     99.22% # Bytes accessed per row activation
system.mem_ctrls0.bytesPerActivate::768-895         1286      0.41%     99.62% # Bytes accessed per row activation
system.mem_ctrls0.bytesPerActivate::896-1023          771      0.25%     99.87% # Bytes accessed per row activation
system.mem_ctrls0.bytesPerActivate::1024-1151          412      0.13%    100.00% # Bytes accessed per row activation
system.mem_ctrls0.bytesPerActivate::total       314628                       # Bytes accessed per row activation
system.mem_ctrls0.rdPerTurnAround::samples        46806                       # Reads before turning the bus around for writes
system.mem_ctrls0.rdPerTurnAround::mean     14.125689                       # Reads before turning the bus around for writes
system.mem_ctrls0.rdPerTurnAround::stdev    29.614109                       # Reads before turning the bus around for writes
system.mem_ctrls0.rdPerTurnAround::0-127        46535     99.42%     99.42% # Reads before turning the bus around for writes
system.mem_ctrls0.rdPerTurnAround::128-255          211      0.45%     99.87% # Reads before turning the bus around for writes
system.mem_ctrls0.rdPerTurnAround::256-383           43      0.09%     99.96% # Reads before turning the bus around for writes
system.mem_ctrls0.rdPerTurnAround::384-511            8      0.02%     99.98% # Reads before turning the bus around for writes
system.mem_ctrls0.rdPerTurnAround::512-639            5      0.01%     99.99% # Reads before turning the bus around for writes
system.mem_ctrls0.rdPerTurnAround::640-767            3      0.01%    100.00% # Reads before turning the bus around for writes
system.mem_ctrls0.rdPerTurnAround::3968-4095            1      0.00%    100.00% # Reads before turning the bus around for writes
system.mem_ctrls0.rdPerTurnAround::total        46806                       # Reads before turning the bus around for writes
system.mem_ctrls0.wrPerTurnAround::samples        46806                       # Writes before turning the bus around for reads
system.mem_ctrls0.wrPerTurnAround::mean      6.664979                       # Writes before turning the bus around for reads
system.mem_ctrls0.wrPerTurnAround::gmean     6.160008                       # Writes before turning the bus around for reads
system.mem_ctrls0.wrPerTurnAround::stdev     3.149440                       # Writes before turning the bus around for reads
system.mem_ctrls0.wrPerTurnAround::4-7          36256     77.46%     77.46% # Writes before turning the bus around for reads
system.mem_ctrls0.wrPerTurnAround::8-11          5373     11.48%     88.94% # Writes before turning the bus around for reads
system.mem_ctrls0.wrPerTurnAround::12-15         2866      6.12%     95.06% # Writes before turning the bus around for reads
system.mem_ctrls0.wrPerTurnAround::16-19         2311      4.94%    100.00% # Writes before turning the bus around for reads
system.mem_ctrls0.wrPerTurnAround::total        46806                       # Writes before turning the bus around for reads
system.mem_ctrls0.totQLat                 74334583369                       # Total ticks spent queuing
system.mem_ctrls0.totMemAccLat            86731558369                       # Total ticks spent from burst creation until serviced by the DRAM
system.mem_ctrls0.totBusLat                3305860000                       # Total ticks spent in databus transfers
system.mem_ctrls0.avgQLat                   112428.51                       # Average queueing delay per DRAM burst
system.mem_ctrls0.avgBusLat                   5000.00                       # Average bus latency per DRAM burst
system.mem_ctrls0.avgMemAccLat              131178.51                       # Average memory access latency per DRAM burst
system.mem_ctrls0.avgRdBW                      353.74                       # Average DRAM read bandwidth in MiByte/s
system.mem_ctrls0.avgWrBW                      166.90                       # Average achieved write bandwidth in MiByte/s
system.mem_ctrls0.avgRdBWSys                   353.90                       # Average system read bandwidth in MiByte/s
system.mem_ctrls0.avgWrBWSys                   166.91                       # Average system write bandwidth in MiByte/s
system.mem_ctrls0.peakBW                     12800.00                       # Theoretical peak bandwidth in MiByte/s
system.mem_ctrls0.busUtil                        4.07                       # Data bus utilization in percentage
system.mem_ctrls0.busUtilRead                    2.76                       # Data bus utilization in percentage for reads
system.mem_ctrls0.busUtilWrite                   1.30                       # Data bus utilization in percentage for writes
system.mem_ctrls0.avgRdQLen                      1.75                       # Average read queue length when enqueuing
system.mem_ctrls0.avgWrQLen                      3.04                       # Average write queue length when enqueuing
system.mem_ctrls0.readRowHits                  487813                       # Number of row buffer hits during reads
system.mem_ctrls0.writeRowHits                 170686                       # Number of row buffer hits during writes
system.mem_ctrls0.readRowHitRate                73.78                       # Row buffer hit rate for reads
system.mem_ctrls0.writeRowHitRate               54.71                       # Row buffer hit rate for writes
system.mem_ctrls0.avgGap                    122885.17                       # Average gap between requests
system.mem_ctrls0.pageHitRate                   67.67                       # Row buffer hit rate, read and write combined
system.mem_ctrls0.memoryStateTime::IDLE   20225621250                       # Time in different power states
system.mem_ctrls0.memoryStateTime::REF     3994380000                       # Time in different power states
system.mem_ctrls0.memoryStateTime::PRE_PDN            0                       # Time in different power states
system.mem_ctrls0.memoryStateTime::ACT    95400536250                       # Time in different power states
system.mem_ctrls0.memoryStateTime::ACT_PDN            0                       # Time in different power states
system.mem_ctrls0.actEnergy::0             1197042840                       # Energy for activate commands per rank (pJ)
system.mem_ctrls0.actEnergy::1             1181522160                       # Energy for activate commands per rank (pJ)
system.mem_ctrls0.preEnergy::0              653148375                       # Energy for precharge commands per rank (pJ)
system.mem_ctrls0.preEnergy::1              644679750                       # Energy for precharge commands per rank (pJ)
system.mem_ctrls0.readEnergy::0            2584576800                       # Energy for read commands per rank (pJ)
system.mem_ctrls0.readEnergy::1            2572486800                       # Energy for read commands per rank (pJ)
system.mem_ctrls0.writeEnergy::0           1013096160                       # Energy for write commands per rank (pJ)
system.mem_ctrls0.writeEnergy::1           1008378720                       # Energy for write commands per rank (pJ)
system.mem_ctrls0.refreshEnergy::0         7813007280                       # Energy for refresh commands per rank (pJ)
system.mem_ctrls0.refreshEnergy::1         7813007280                       # Energy for refresh commands per rank (pJ)
system.mem_ctrls0.actBackEnergy::0        49304099115                       # Energy for active background per rank (pJ)
system.mem_ctrls0.actBackEnergy::1        48830048640                       # Energy for active background per rank (pJ)
system.mem_ctrls0.preBackEnergy::0        28523041500                       # Energy for precharge background per rank (pJ)
system.mem_ctrls0.preBackEnergy::1        28938875250                       # Energy for precharge background per rank (pJ)
system.mem_ctrls0.totalEnergy::0          91088012070                       # Total energy per rank (pJ)
system.mem_ctrls0.totalEnergy::1          90988998600                       # Total energy per rank (pJ)
system.mem_ctrls0.averagePower::0          761.475449                       # Core power per rank (mW)
system.mem_ctrls0.averagePower::1          760.647718                       # Core power per rank (mW)
system.mem_ctrls1.bytes_read::ruby.dir_cntrl1     41847232                       # Number of bytes read from this memory
system.mem_ctrls1.bytes_read::total          41847232                       # Number of bytes read from this memory
system.mem_ctrls1.bytes_written::ruby.dir_cntrl1     19433920                       # Number of bytes written to this memory
system.mem_ctrls1.bytes_written::total       19433920                       # Number of bytes written to this memory
system.mem_ctrls1.num_reads::ruby.dir_cntrl1       653863                       # Number of read requests responded to by this memory
system.mem_ctrls1.num_reads::total             653863                       # Number of read requests responded to by this memory
system.mem_ctrls1.num_writes::ruby.dir_cntrl1       303655                       # Number of write requests responded to by this memory
system.mem_ctrls1.num_writes::total            303655                       # Number of write requests responded to by this memory
system.mem_ctrls1.bw_read::ruby.dir_cntrl1    349827937                       # Total read bandwidth from this memory (bytes/s)
system.mem_ctrls1.bw_read::total            349827937                       # Total read bandwidth from this memory (bytes/s)
system.mem_ctrls1.bw_write::ruby.dir_cntrl1    162460641                       # Write bandwidth from this memory (bytes/s)
system.mem_ctrls1.bw_write::total           162460641                       # Write bandwidth from this memory (bytes/s)
system.mem_ctrls1.bw_total::ruby.dir_cntrl1    512288578                       # Total bandwidth to/from this memory (bytes/s)
system.mem_ctrls1.bw_total::total           512288578                       # Total bandwidth to/from this memory (bytes/s)
system.mem_ctrls1.readReqs                     653863                       # Number of read requests accepted
system.mem_ctrls1.writeReqs                    303655                       # Number of write requests accepted
system.mem_ctrls1.readBursts                   653863                       # Number of DRAM read bursts, including those serviced by the write queue
system.mem_ctrls1.writeBursts                  303655                       # Number of DRAM write bursts, including those merged in the write queue
system.mem_ctrls1.bytesReadDRAM              41826816                       # Total number of bytes read from DRAM
system.mem_ctrls1.bytesReadWrQ                  20416                       # Total number of bytes read from write queue
system.mem_ctrls1.bytesWritten               19433728                       # Total number of bytes written to DRAM
system.mem_ctrls1.bytesReadSys               41847232                       # Total read bytes from the system interface side
system.mem_ctrls1.bytesWrittenSys            19433920                       # Total written bytes from the system interface side
system.mem_ctrls1.servicedByWrQ                   319                       # Number of DRAM read bursts serviced by the write queue
system.mem_ctrls1.mergedWrBursts                    0                       # Number of DRAM write bursts merged with an existing one
system.mem_ctrls1.neitherReadNorWriteReqs            0                       # Number of requests that are neither read nor write
system.mem_ctrls1.perBankRdBursts::0            40691                       # Per bank write bursts
system.mem_ctrls1.perBankRdBursts::1            40884                       # Per bank write bursts
system.mem_ctrls1.perBankRdBursts::2            40637                       # Per bank write bursts
system.mem_ctrls1.perBankRdBursts::3            40870                       # Per bank write bursts
system.mem_ctrls1.perBankRdBursts::4            41082                       # Per bank write bursts
system.mem_ctrls1.perBankRdBursts::5            40693                       # Per bank write bursts
system.mem_ctrls1.perBankRdBursts::6            41962                       # Per bank write bursts
system.mem_ctrls1.perBankRdBursts::7            40971                       # Per bank write bursts
system.mem_ctrls1.perBankRdBursts::8            40366                       # Per bank write bursts
system.mem_ctrls1.perBankRdBursts::9            40650                       # Per bank write bursts
system.mem_ctrls1.perBankRdBursts::10           40477                       # Per bank write bursts
system.mem_ctrls1.perBankRdBursts::11           40983                       # Per bank write bursts
system.mem_ctrls1.perBankRdBursts::12           40874                       # Per bank write bursts
system.mem_ctrls1.perBankRdBursts::13           40508                       # Per bank write bursts
system.mem_ctrls1.perBankRdBursts::14           41109                       # Per bank write bursts
system.mem_ctrls1.perBankRdBursts::15           40787                       # Per bank write bursts
system.mem_ctrls1.perBankWrBursts::0            18912                       # Per bank write bursts
system.mem_ctrls1.perBankWrBursts::1            19053                       # Per bank write bursts
system.mem_ctrls1.perBankWrBursts::2            18961                       # Per bank write bursts
system.mem_ctrls1.perBankWrBursts::3            18965                       # Per bank write bursts
system.mem_ctrls1.perBankWrBursts::4            19033                       # Per bank write bursts
system.mem_ctrls1.perBankWrBursts::5            18944                       # Per bank write bursts
system.mem_ctrls1.perBankWrBursts::6            19188                       # Per bank write bursts
system.mem_ctrls1.perBankWrBursts::7            19180                       # Per bank write bursts
system.mem_ctrls1.perBankWrBursts::8            18832                       # Per bank write bursts
system.mem_ctrls1.perBankWrBursts::9            19101                       # Per bank write bursts
system.mem_ctrls1.perBankWrBursts::10           18841                       # Per bank write bursts
system.mem_ctrls1.perBankWrBursts::11           18907                       # Per bank write bursts
system.mem_ctrls1.perBankWrBursts::12           18957                       # Per bank write bursts
system.mem_ctrls1.perBankWrBursts::13           18815                       # Per bank write bursts
system.mem_ctrls1.perBankWrBursts::14           19003                       # Per bank write bursts
system.mem_ctrls1.perBankWrBursts::15           18960                       # Per bank write bursts
system.mem_ctrls1.numRdRetry                    59994                       # Number of times read queue was full causing retry
system.mem_ctrls1.numWrRetry                    11931                       # Number of times write queue was full causing retry
system.mem_ctrls1.totGap                 119621575500                       # Total gap between requests
system.mem_ctrls1.readPktSize::0                    0                       # Read request sizes (log2)
system.mem_ctrls1.readPktSize::1                    0                       # Read request sizes (log2)
system.mem_ctrls1.readPktSize::2                    0                       # Read request sizes (log2)
system.mem_ctrls1.readPktSize::3                    0                       # Read request sizes (log2)
system.mem_ctrls1.readPktSize::4                    0                       # Read request sizes (log2)
system.mem_ctrls1.readPktSize::5                    0                       # Read request sizes (log2)
system.mem_ctrls1.readPktSize::6               653863                       # Read request sizes (log2)
system.mem_ctrls1.writePktSize::0                   0                       # Write request sizes (log2)
system.mem_ctrls1.writePktSize::1                   0                       # Write request sizes (log2)
system.mem_ctrls1.writePktSize::2                   0                       # Write request sizes (log2)
system.mem_ctrls1.writePktSize::3                   0                       # Write request sizes (log2)
system.mem_ctrls1.writePktSize::4                   0                       # Write request sizes (log2)
system.mem_ctrls1.writePktSize::5                   0                       # Write request sizes (log2)
system.mem_ctrls1.writePktSize::6              303655                       # Write request sizes (log2)
system.mem_ctrls1.rdQLenPdf::0                 170888                       # What read queue length does an incoming req see
system.mem_ctrls1.rdQLenPdf::1                  22060                       # What read queue length does an incoming req see
system.mem_ctrls1.rdQLenPdf::2                  22436                       # What read queue length does an incoming req see
system.mem_ctrls1.rdQLenPdf::3                  22822                       # What read queue length does an incoming req see
system.mem_ctrls1.rdQLenPdf::4                  23188                       # What read queue length does an incoming req see
system.mem_ctrls1.rdQLenPdf::5                  23184                       # What read queue length does an incoming req see
system.mem_ctrls1.rdQLenPdf::6                  23084                       # What read queue length does an incoming req see
system.mem_ctrls1.rdQLenPdf::7                  22547                       # What read queue length does an incoming req see
system.mem_ctrls1.rdQLenPdf::8                  21500                       # What read queue length does an incoming req see
system.mem_ctrls1.rdQLenPdf::9                  20741                       # What read queue length does an incoming req see
system.mem_ctrls1.rdQLenPdf::10                 19597                       # What read queue length does an incoming req see
system.mem_ctrls1.rdQLenPdf::11                 18083                       # What read queue length does an incoming req see
system.mem_ctrls1.rdQLenPdf::12                 16841                       # What read queue length does an incoming req see
system.mem_ctrls1.rdQLenPdf::13                 15684                       # What read queue length does an incoming req see
system.mem_ctrls1.rdQLenPdf::14                 14524                       # What read queue length does an incoming req see
system.mem_ctrls1.rdQLenPdf::15                 13607                       # What read queue length does an incoming req see
system.mem_ctrls1.rdQLenPdf::16                 12320                       # What read queue length does an incoming req see
system.mem_ctrls1.rdQLenPdf::17                 11380                       # What read queue length does an incoming req see
system.mem_ctrls1.rdQLenPdf::18                 10741                       # What read queue length does an incoming req see
system.mem_ctrls1.rdQLenPdf::19                  9772                       # What read queue length does an incoming req see
system.mem_ctrls1.rdQLenPdf::20                  9039                       # What read queue length does an incoming req see
system.mem_ctrls1.rdQLenPdf::21                  8316                       # What read queue length does an incoming req see
system.mem_ctrls1.rdQLenPdf::22                  7723                       # What read queue length does an incoming req see
system.mem_ctrls1.rdQLenPdf::23                  7292                       # What read queue length does an incoming req see
system.mem_ctrls1.rdQLenPdf::24                  6882                       # What read queue length does an incoming req see
system.mem_ctrls1.rdQLenPdf::25                  6509                       # What read queue length does an incoming req see
system.mem_ctrls1.rdQLenPdf::26                  6171                       # What read queue length does an incoming req see
system.mem_ctrls1.rdQLenPdf::27                  5777                       # What read queue length does an incoming req see
system.mem_ctrls1.rdQLenPdf::28                  5421                       # What read queue length does an incoming req see
system.mem_ctrls1.rdQLenPdf::29                  5190                       # What read queue length does an incoming req see
system.mem_ctrls1.rdQLenPdf::30                  5091                       # What read queue length does an incoming req see
system.mem_ctrls1.rdQLenPdf::31                 65134                       # What read queue length does an incoming req see
system.mem_ctrls1.wrQLenPdf::0                  43311                       # What write queue length does an incoming req see
system.mem_ctrls1.wrQLenPdf::1                  48624                       # What write queue length does an incoming req see
system.mem_ctrls1.wrQLenPdf::2                  51533                       # What write queue length does an incoming req see
system.mem_ctrls1.wrQLenPdf::3                  52502                       # What write queue length does an incoming req see
system.mem_ctrls1.wrQLenPdf::4                  52641                       # What write queue length does an incoming req see
system.mem_ctrls1.wrQLenPdf::5                  17267                       # What write queue length does an incoming req see
system.mem_ctrls1.wrQLenPdf::6                  16090                       # What write queue length does an incoming req see
system.mem_ctrls1.wrQLenPdf::7                  21687                       # What write queue length does an incoming req see
system.mem_ctrls1.bytesPerActivate::samples       301146                       # Bytes accessed per row activation
system.mem_ctrls1.bytesPerActivate::mean   203.421756                       # Bytes accessed per row activation
system.mem_ctrls1.bytesPerActivate::gmean   155.706107                       # Bytes accessed per row activation
system.mem_ctrls1.bytesPerActivate::stdev   152.268595                       # Bytes accessed per row activation
system.mem_ctrls1.bytesPerActivate::0-127        98256     32.63%     32.63% # Bytes accessed per row activation
system.mem_ctrls1.bytesPerActivate::128-255        90218     29.96%     62.59% # Bytes accessed per row activation
system.mem_ctrls1.bytesPerActivate::256-383        73672     24.46%     87.05% # Bytes accessed per row activation
system.mem_ctrls1.bytesPerActivate::384-511        19399      6.44%     93.49% # Bytes accessed per row activation
system.mem_ctrls1.bytesPerActivate::512-639        14292      4.75%     98.24% # Bytes accessed per row activation
system.mem_ctrls1.bytesPerActivate::640-767         2739      0.91%     99.15% # Bytes accessed per row activation
system.mem_ctrls1.bytesPerActivate::768-895         1328      0.44%     99.59% # Bytes accessed per row activation
system.mem_ctrls1.bytesPerActivate::896-1023          831      0.28%     99.86% # Bytes accessed per row activation
system.mem_ctrls1.bytesPerActivate::1024-1151          411      0.14%    100.00% # Bytes accessed per row activation
system.mem_ctrls1.bytesPerActivate::total       301146                       # Bytes accessed per row activation
system.mem_ctrls1.rdPerTurnAround::samples        45205                       # Reads before turning the bus around for writes
system.mem_ctrls1.rdPerTurnAround::mean     14.457206                       # Reads before turning the bus around for writes
system.mem_ctrls1.rdPerTurnAround::stdev    27.848273                       # Reads before turning the bus around for writes
system.mem_ctrls1.rdPerTurnAround::0-127        44935     99.40%     99.40% # Reads before turning the bus around for writes
system.mem_ctrls1.rdPerTurnAround::128-255          212      0.47%     99.87% # Reads before turning the bus around for writes
system.mem_ctrls1.rdPerTurnAround::256-383           37      0.08%     99.95% # Reads before turning the bus around for writes
system.mem_ctrls1.rdPerTurnAround::384-511           10      0.02%     99.98% # Reads before turning the bus around for writes
system.mem_ctrls1.rdPerTurnAround::512-639            7      0.02%     99.99% # Reads before turning the bus around for writes
system.mem_ctrls1.rdPerTurnAround::768-895            1      0.00%     99.99% # Reads before turning the bus around for writes
system.mem_ctrls1.rdPerTurnAround::896-1023            1      0.00%    100.00% # Reads before turning the bus around for writes
system.mem_ctrls1.rdPerTurnAround::1152-1279            1      0.00%    100.00% # Reads before turning the bus around for writes
system.mem_ctrls1.rdPerTurnAround::2816-2943            1      0.00%    100.00% # Reads before turning the bus around for writes
system.mem_ctrls1.rdPerTurnAround::total        45205                       # Reads before turning the bus around for writes
system.mem_ctrls1.wrPerTurnAround::samples        45205                       # Writes before turning the bus around for reads
system.mem_ctrls1.wrPerTurnAround::mean      6.717222                       # Writes before turning the bus around for reads
system.mem_ctrls1.wrPerTurnAround::gmean     6.197734                       # Writes before turning the bus around for reads
system.mem_ctrls1.wrPerTurnAround::stdev     3.194919                       # Writes before turning the bus around for reads
system.mem_ctrls1.wrPerTurnAround::4-7          34661     76.68%     76.68% # Writes before turning the bus around for reads
system.mem_ctrls1.wrPerTurnAround::8-11          5374     11.89%     88.56% # Writes before turning the bus around for reads
system.mem_ctrls1.wrPerTurnAround::12-15         2817      6.23%     94.79% # Writes before turning the bus around for reads
system.mem_ctrls1.wrPerTurnAround::16-19         2353      5.21%    100.00% # Writes before turning the bus around for reads
system.mem_ctrls1.wrPerTurnAround::total        45205                       # Writes before turning the bus around for reads
system.mem_ctrls1.totQLat                 73368029569                       # Total ticks spent queuing
system.mem_ctrls1.totMemAccLat            85621979569                       # Total ticks spent from burst creation until serviced by the DRAM
system.mem_ctrls1.totBusLat                3267720000                       # Total ticks spent in databus transfers
system.mem_ctrls1.avgQLat                   112261.81                       # Average queueing delay per DRAM burst
system.mem_ctrls1.avgBusLat                   5000.00                       # Average bus latency per DRAM burst
system.mem_ctrls1.avgMemAccLat              131011.81                       # Average memory access latency per DRAM burst
system.mem_ctrls1.avgRdBW                      349.66                       # Average DRAM read bandwidth in MiByte/s
system.mem_ctrls1.avgWrBW                      162.46                       # Average achieved write bandwidth in MiByte/s
system.mem_ctrls1.avgRdBWSys                   349.83                       # Average system read bandwidth in MiByte/s
system.mem_ctrls1.avgWrBWSys                   162.46                       # Average system write bandwidth in MiByte/s
system.mem_ctrls1.peakBW                     12800.00                       # Theoretical peak bandwidth in MiByte/s
system.mem_ctrls1.busUtil                        4.00                       # Data bus utilization in percentage
system.mem_ctrls1.busUtilRead                    2.73                       # Data bus utilization in percentage for reads
system.mem_ctrls1.busUtilWrite                   1.27                       # Data bus utilization in percentage for writes
system.mem_ctrls1.avgRdQLen                      1.75                       # Average read queue length when enqueuing
system.mem_ctrls1.avgWrQLen                      3.03                       # Average write queue length when enqueuing
system.mem_ctrls1.readRowHits                  485754                       # Number of row buffer hits during reads
system.mem_ctrls1.writeRowHits                 170289                       # Number of row buffer hits during writes
system.mem_ctrls1.readRowHitRate                74.33                       # Row buffer hit rate for reads
system.mem_ctrls1.writeRowHitRate               56.08                       # Row buffer hit rate for writes
system.mem_ctrls1.avgGap                    124928.80                       # Average gap between requests
system.mem_ctrls1.pageHitRate                   68.54                       # Row buffer hit rate, read and write combined
system.mem_ctrls1.memoryStateTime::IDLE   20725834500                       # Time in different power states
system.mem_ctrls1.memoryStateTime::REF     3994380000                       # Time in different power states
system.mem_ctrls1.memoryStateTime::PRE_PDN            0                       # Time in different power states
system.mem_ctrls1.memoryStateTime::ACT    94900423000                       # Time in different power states
system.mem_ctrls1.memoryStateTime::ACT_PDN            0                       # Time in different power states
system.mem_ctrls1.actEnergy::0             1147570200                       # Energy for activate commands per rank (pJ)
system.mem_ctrls1.actEnergy::1             1129070880                       # Energy for activate commands per rank (pJ)
system.mem_ctrls1.preEnergy::0              626154375                       # Energy for precharge commands per rank (pJ)
system.mem_ctrls1.preEnergy::1              616060500                       # Energy for precharge commands per rank (pJ)
system.mem_ctrls1.readEnergy::0            2556730800                       # Energy for read commands per rank (pJ)
system.mem_ctrls1.readEnergy::1            2540803200                       # Energy for read commands per rank (pJ)
system.mem_ctrls1.writeEnergy::0            986476320                       # Energy for write commands per rank (pJ)
system.mem_ctrls1.writeEnergy::1            981156240                       # Energy for write commands per rank (pJ)
system.mem_ctrls1.refreshEnergy::0         7813007280                       # Energy for refresh commands per rank (pJ)
system.mem_ctrls1.refreshEnergy::1         7813007280                       # Energy for refresh commands per rank (pJ)
system.mem_ctrls1.actBackEnergy::0        48087515340                       # Energy for active background per rank (pJ)
system.mem_ctrls1.actBackEnergy::1        47859765570                       # Energy for active background per rank (pJ)
system.mem_ctrls1.preBackEnergy::0        29590220250                       # Energy for precharge background per rank (pJ)
system.mem_ctrls1.preBackEnergy::1        29790000750                       # Energy for precharge background per rank (pJ)
system.mem_ctrls1.totalEnergy::0          90807674565                       # Total energy per rank (pJ)
system.mem_ctrls1.totalEnergy::1          90729864420                       # Total energy per rank (pJ)
system.mem_ctrls1.averagePower::0          759.131890                       # Core power per rank (mW)
system.mem_ctrls1.averagePower::1          758.481415                       # Core power per rank (mW)
system.mem_ctrls2.bytes_read::ruby.dir_cntrl2     41787968                       # Number of bytes read from this memory
system.mem_ctrls2.bytes_read::total          41787968                       # Number of bytes read from this memory
system.mem_ctrls2.bytes_written::ruby.dir_cntrl2     19421312                       # Number of bytes written to this memory
system.mem_ctrls2.bytes_written::total       19421312                       # Number of bytes written to this memory
system.mem_ctrls2.num_reads::ruby.dir_cntrl2       652937                       # Number of read requests responded to by this memory
system.mem_ctrls2.num_reads::total             652937                       # Number of read requests responded to by this memory
system.mem_ctrls2.num_writes::ruby.dir_cntrl2       303458                       # Number of write requests responded to by this memory
system.mem_ctrls2.num_writes::total            303458                       # Number of write requests responded to by this memory
system.mem_ctrls2.bw_read::ruby.dir_cntrl2    349332511                       # Total read bandwidth from this memory (bytes/s)
system.mem_ctrls2.bw_read::total            349332511                       # Total read bandwidth from this memory (bytes/s)
system.mem_ctrls2.bw_write::ruby.dir_cntrl2    162355243                       # Write bandwidth from this memory (bytes/s)
system.mem_ctrls2.bw_write::total           162355243                       # Write bandwidth from this memory (bytes/s)
system.mem_ctrls2.bw_total::ruby.dir_cntrl2    511687753                       # Total bandwidth to/from this memory (bytes/s)
system.mem_ctrls2.bw_total::total           511687753                       # Total bandwidth to/from this memory (bytes/s)
system.mem_ctrls2.readReqs                     652937                       # Number of read requests accepted
system.mem_ctrls2.writeReqs                    303458                       # Number of write requests accepted
system.mem_ctrls2.readBursts                   652937                       # Number of DRAM read bursts, including those serviced by the write queue
system.mem_ctrls2.writeBursts                  303458                       # Number of DRAM write bursts, including those merged in the write queue
system.mem_ctrls2.bytesReadDRAM              41772032                       # Total number of bytes read from DRAM
system.mem_ctrls2.bytesReadWrQ                  15936                       # Total number of bytes read from write queue
system.mem_ctrls2.bytesWritten               19421184                       # Total number of bytes written to DRAM
system.mem_ctrls2.bytesReadSys               41787968                       # Total read bytes from the system interface side
system.mem_ctrls2.bytesWrittenSys            19421312                       # Total written bytes from the system interface side
system.mem_ctrls2.servicedByWrQ                   249                       # Number of DRAM read bursts serviced by the write queue
system.mem_ctrls2.mergedWrBursts                    0                       # Number of DRAM write bursts merged with an existing one
system.mem_ctrls2.neitherReadNorWriteReqs            0                       # Number of requests that are neither read nor write
system.mem_ctrls2.perBankRdBursts::0            40751                       # Per bank write bursts
system.mem_ctrls2.perBankRdBursts::1            40807                       # Per bank write bursts
system.mem_ctrls2.perBankRdBursts::2            40681                       # Per bank write bursts
system.mem_ctrls2.perBankRdBursts::3            40666                       # Per bank write bursts
system.mem_ctrls2.perBankRdBursts::4            40874                       # Per bank write bursts
system.mem_ctrls2.perBankRdBursts::5            40765                       # Per bank write bursts
system.mem_ctrls2.perBankRdBursts::6            41774                       # Per bank write bursts
system.mem_ctrls2.perBankRdBursts::7            40957                       # Per bank write bursts
system.mem_ctrls2.perBankRdBursts::8            40395                       # Per bank write bursts
system.mem_ctrls2.perBankRdBursts::9            40607                       # Per bank write bursts
system.mem_ctrls2.perBankRdBursts::10           40545                       # Per bank write bursts
system.mem_ctrls2.perBankRdBursts::11           40825                       # Per bank write bursts
system.mem_ctrls2.perBankRdBursts::12           40609                       # Per bank write bursts
system.mem_ctrls2.perBankRdBursts::13           40555                       # Per bank write bursts
system.mem_ctrls2.perBankRdBursts::14           41157                       # Per bank write bursts
system.mem_ctrls2.perBankRdBursts::15           40720                       # Per bank write bursts
system.mem_ctrls2.perBankWrBursts::0            18961                       # Per bank write bursts
system.mem_ctrls2.perBankWrBursts::1            18984                       # Per bank write bursts
system.mem_ctrls2.perBankWrBursts::2            19035                       # Per bank write bursts
system.mem_ctrls2.perBankWrBursts::3            18890                       # Per bank write bursts
system.mem_ctrls2.perBankWrBursts::4            18950                       # Per bank write bursts
system.mem_ctrls2.perBankWrBursts::5            18920                       # Per bank write bursts
system.mem_ctrls2.perBankWrBursts::6            19160                       # Per bank write bursts
system.mem_ctrls2.perBankWrBursts::7            19148                       # Per bank write bursts
system.mem_ctrls2.perBankWrBursts::8            18900                       # Per bank write bursts
system.mem_ctrls2.perBankWrBursts::9            19083                       # Per bank write bursts
system.mem_ctrls2.perBankWrBursts::10           18955                       # Per bank write bursts
system.mem_ctrls2.perBankWrBursts::11           18859                       # Per bank write bursts
system.mem_ctrls2.perBankWrBursts::12           18870                       # Per bank write bursts
system.mem_ctrls2.perBankWrBursts::13           18827                       # Per bank write bursts
system.mem_ctrls2.perBankWrBursts::14           19017                       # Per bank write bursts
system.mem_ctrls2.perBankWrBursts::15           18897                       # Per bank write bursts
system.mem_ctrls2.numRdRetry                    60072                       # Number of times read queue was full causing retry
system.mem_ctrls2.numWrRetry                    11819                       # Number of times write queue was full causing retry
system.mem_ctrls2.totGap                 119622284500                       # Total gap between requests
system.mem_ctrls2.readPktSize::0                    0                       # Read request sizes (log2)
system.mem_ctrls2.readPktSize::1                    0                       # Read request sizes (log2)
system.mem_ctrls2.readPktSize::2                    0                       # Read request sizes (log2)
system.mem_ctrls2.readPktSize::3                    0                       # Read request sizes (log2)
system.mem_ctrls2.readPktSize::4                    0                       # Read request sizes (log2)
system.mem_ctrls2.readPktSize::5                    0                       # Read request sizes (log2)
system.mem_ctrls2.readPktSize::6               652937                       # Read request sizes (log2)
system.mem_ctrls2.writePktSize::0                   0                       # Write request sizes (log2)
system.mem_ctrls2.writePktSize::1                   0                       # Write request sizes (log2)
system.mem_ctrls2.writePktSize::2                   0                       # Write request sizes (log2)
system.mem_ctrls2.writePktSize::3                   0                       # Write request sizes (log2)
system.mem_ctrls2.writePktSize::4                   0                       # Write request sizes (log2)
system.mem_ctrls2.writePktSize::5                   0                       # Write request sizes (log2)
system.mem_ctrls2.writePktSize::6              303458                       # Write request sizes (log2)
system.mem_ctrls2.rdQLenPdf::0                 171111                       # What read queue length does an incoming req see
system.mem_ctrls2.rdQLenPdf::1                  22134                       # What read queue length does an incoming req see
system.mem_ctrls2.rdQLenPdf::2                  22588                       # What read queue length does an incoming req see
system.mem_ctrls2.rdQLenPdf::3                  23094                       # What read queue length does an incoming req see
system.mem_ctrls2.rdQLenPdf::4                  23715                       # What read queue length does an incoming req see
system.mem_ctrls2.rdQLenPdf::5                  23659                       # What read queue length does an incoming req see
system.mem_ctrls2.rdQLenPdf::6                  23464                       # What read queue length does an incoming req see
system.mem_ctrls2.rdQLenPdf::7                  22410                       # What read queue length does an incoming req see
system.mem_ctrls2.rdQLenPdf::8                  21530                       # What read queue length does an incoming req see
system.mem_ctrls2.rdQLenPdf::9                  20386                       # What read queue length does an incoming req see
system.mem_ctrls2.rdQLenPdf::10                 19096                       # What read queue length does an incoming req see
system.mem_ctrls2.rdQLenPdf::11                 17900                       # What read queue length does an incoming req see
system.mem_ctrls2.rdQLenPdf::12                 16949                       # What read queue length does an incoming req see
system.mem_ctrls2.rdQLenPdf::13                 15856                       # What read queue length does an incoming req see
system.mem_ctrls2.rdQLenPdf::14                 14595                       # What read queue length does an incoming req see
system.mem_ctrls2.rdQLenPdf::15                 13109                       # What read queue length does an incoming req see
system.mem_ctrls2.rdQLenPdf::16                 12006                       # What read queue length does an incoming req see
system.mem_ctrls2.rdQLenPdf::17                 11111                       # What read queue length does an incoming req see
system.mem_ctrls2.rdQLenPdf::18                 10459                       # What read queue length does an incoming req see
system.mem_ctrls2.rdQLenPdf::19                  9495                       # What read queue length does an incoming req see
system.mem_ctrls2.rdQLenPdf::20                  8736                       # What read queue length does an incoming req see
system.mem_ctrls2.rdQLenPdf::21                  8075                       # What read queue length does an incoming req see
system.mem_ctrls2.rdQLenPdf::22                  7506                       # What read queue length does an incoming req see
system.mem_ctrls2.rdQLenPdf::23                  7052                       # What read queue length does an incoming req see
system.mem_ctrls2.rdQLenPdf::24                  6631                       # What read queue length does an incoming req see
system.mem_ctrls2.rdQLenPdf::25                  6420                       # What read queue length does an incoming req see
system.mem_ctrls2.rdQLenPdf::26                  6164                       # What read queue length does an incoming req see
system.mem_ctrls2.rdQLenPdf::27                  5810                       # What read queue length does an incoming req see
system.mem_ctrls2.rdQLenPdf::28                  5651                       # What read queue length does an incoming req see
system.mem_ctrls2.rdQLenPdf::29                  5331                       # What read queue length does an incoming req see
system.mem_ctrls2.rdQLenPdf::30                  5273                       # What read queue length does an incoming req see
system.mem_ctrls2.rdQLenPdf::31                 65372                       # What read queue length does an incoming req see
system.mem_ctrls2.wrQLenPdf::0                  43394                       # What write queue length does an incoming req see
system.mem_ctrls2.wrQLenPdf::1                  48761                       # What write queue length does an incoming req see
system.mem_ctrls2.wrQLenPdf::2                  51323                       # What write queue length does an incoming req see
system.mem_ctrls2.wrQLenPdf::3                  52673                       # What write queue length does an incoming req see
system.mem_ctrls2.wrQLenPdf::4                  52680                       # What write queue length does an incoming req see
system.mem_ctrls2.wrQLenPdf::5                  17176                       # What write queue length does an incoming req see
system.mem_ctrls2.wrQLenPdf::6                  15771                       # What write queue length does an incoming req see
system.mem_ctrls2.wrQLenPdf::7                  21680                       # What write queue length does an incoming req see
system.mem_ctrls2.bytesPerActivate::samples       300569                       # Bytes accessed per row activation
system.mem_ctrls2.bytesPerActivate::mean   203.589326                       # Bytes accessed per row activation
system.mem_ctrls2.bytesPerActivate::gmean   156.004058                       # Bytes accessed per row activation
system.mem_ctrls2.bytesPerActivate::stdev   152.042160                       # Bytes accessed per row activation
system.mem_ctrls2.bytesPerActivate::0-127        97425     32.41%     32.41% # Bytes accessed per row activation
system.mem_ctrls2.bytesPerActivate::128-255        90294     30.04%     62.45% # Bytes accessed per row activation
system.mem_ctrls2.bytesPerActivate::256-383        74051     24.64%     87.09% # Bytes accessed per row activation
system.mem_ctrls2.bytesPerActivate::384-511        19237      6.40%     93.49% # Bytes accessed per row activation
system.mem_ctrls2.bytesPerActivate::512-639        14222      4.73%     98.22% # Bytes accessed per row activation
system.mem_ctrls2.bytesPerActivate::640-767         2813      0.94%     99.16% # Bytes accessed per row activation
system.mem_ctrls2.bytesPerActivate::768-895         1302      0.43%     99.59% # Bytes accessed per row activation
system.mem_ctrls2.bytesPerActivate::896-1023          823      0.27%     99.87% # Bytes accessed per row activation
system.mem_ctrls2.bytesPerActivate::1024-1151          402      0.13%    100.00% # Bytes accessed per row activation
system.mem_ctrls2.bytesPerActivate::total       300569                       # Bytes accessed per row activation
system.mem_ctrls2.rdPerTurnAround::samples        45192                       # Reads before turning the bus around for writes
system.mem_ctrls2.rdPerTurnAround::mean     14.442468                       # Reads before turning the bus around for writes
system.mem_ctrls2.rdPerTurnAround::stdev    27.807284                       # Reads before turning the bus around for writes
system.mem_ctrls2.rdPerTurnAround::0-127        44940     99.44%     99.44% # Reads before turning the bus around for writes
system.mem_ctrls2.rdPerTurnAround::128-255          191      0.42%     99.87% # Reads before turning the bus around for writes
system.mem_ctrls2.rdPerTurnAround::256-383           40      0.09%     99.95% # Reads before turning the bus around for writes
system.mem_ctrls2.rdPerTurnAround::384-511           12      0.03%     99.98% # Reads before turning the bus around for writes
system.mem_ctrls2.rdPerTurnAround::512-639            5      0.01%     99.99% # Reads before turning the bus around for writes
system.mem_ctrls2.rdPerTurnAround::640-767            1      0.00%     99.99% # Reads before turning the bus around for writes
system.mem_ctrls2.rdPerTurnAround::768-895            1      0.00%    100.00% # Reads before turning the bus around for writes
system.mem_ctrls2.rdPerTurnAround::1152-1279            1      0.00%    100.00% # Reads before turning the bus around for writes
system.mem_ctrls2.rdPerTurnAround::2816-2943            1      0.00%    100.00% # Reads before turning the bus around for writes
system.mem_ctrls2.rdPerTurnAround::total        45192                       # Reads before turning the bus around for writes
system.mem_ctrls2.wrPerTurnAround::samples        45192                       # Writes before turning the bus around for reads
system.mem_ctrls2.wrPerTurnAround::mean      6.714817                       # Writes before turning the bus around for reads
system.mem_ctrls2.wrPerTurnAround::gmean     6.199665                       # Writes before turning the bus around for reads
system.mem_ctrls2.wrPerTurnAround::stdev     3.175471                       # Writes before turning the bus around for reads
system.mem_ctrls2.wrPerTurnAround::4-7          34608     76.58%     76.58% # Writes before turning the bus around for reads
system.mem_ctrls2.wrPerTurnAround::8-11          5499     12.17%     88.75% # Writes before turning the bus around for reads
system.mem_ctrls2.wrPerTurnAround::12-15         2826      6.25%     95.00% # Writes before turning the bus around for reads
system.mem_ctrls2.wrPerTurnAround::16-19         2259      5.00%    100.00% # Writes before turning the bus around for reads
system.mem_ctrls2.wrPerTurnAround::total        45192                       # Writes before turning the bus around for reads
system.mem_ctrls2.totQLat                 73139926217                       # Total ticks spent queuing
system.mem_ctrls2.totMemAccLat            85377826217                       # Total ticks spent from burst creation until serviced by the DRAM
system.mem_ctrls2.totBusLat                3263440000                       # Total ticks spent in databus transfers
system.mem_ctrls2.avgQLat                   112059.55                       # Average queueing delay per DRAM burst
system.mem_ctrls2.avgBusLat                   5000.00                       # Average bus latency per DRAM burst
system.mem_ctrls2.avgMemAccLat              130809.55                       # Average memory access latency per DRAM burst
system.mem_ctrls2.avgRdBW                      349.20                       # Average DRAM read bandwidth in MiByte/s
system.mem_ctrls2.avgWrBW                      162.35                       # Average achieved write bandwidth in MiByte/s
system.mem_ctrls2.avgRdBWSys                   349.33                       # Average system read bandwidth in MiByte/s
system.mem_ctrls2.avgWrBWSys                   162.36                       # Average system write bandwidth in MiByte/s
system.mem_ctrls2.peakBW                     12800.00                       # Theoretical peak bandwidth in MiByte/s
system.mem_ctrls2.busUtil                        4.00                       # Data bus utilization in percentage
system.mem_ctrls2.busUtilRead                    2.73                       # Data bus utilization in percentage for reads
system.mem_ctrls2.busUtilWrite                   1.27                       # Data bus utilization in percentage for writes
system.mem_ctrls2.avgRdQLen                      1.74                       # Average read queue length when enqueuing
system.mem_ctrls2.avgWrQLen                      3.03                       # Average write queue length when enqueuing
system.mem_ctrls2.readRowHits                  485208                       # Number of row buffer hits during reads
system.mem_ctrls2.writeRowHits                 170361                       # Number of row buffer hits during writes
system.mem_ctrls2.readRowHitRate                74.34                       # Row buffer hit rate for reads
system.mem_ctrls2.writeRowHitRate               56.14                       # Row buffer hit rate for writes
system.mem_ctrls2.avgGap                    125076.23                       # Average gap between requests
system.mem_ctrls2.pageHitRate                   68.56                       # Row buffer hit rate, read and write combined
system.mem_ctrls2.memoryStateTime::IDLE   20838770500                       # Time in different power states
system.mem_ctrls2.memoryStateTime::REF     3994380000                       # Time in different power states
system.mem_ctrls2.memoryStateTime::PRE_PDN            0                       # Time in different power states
system.mem_ctrls2.memoryStateTime::ACT    94787282000                       # Time in different power states
system.mem_ctrls2.memoryStateTime::ACT_PDN            0                       # Time in different power states
system.mem_ctrls2.actEnergy::0             1144969560                       # Energy for activate commands per rank (pJ)
system.mem_ctrls2.actEnergy::1             1127301840                       # Energy for activate commands per rank (pJ)
system.mem_ctrls2.preEnergy::0              624735375                       # Energy for precharge commands per rank (pJ)
system.mem_ctrls2.preEnergy::1              615095250                       # Energy for precharge commands per rank (pJ)
system.mem_ctrls2.readEnergy::0            2552721600                       # Energy for read commands per rank (pJ)
system.mem_ctrls2.readEnergy::1            2538182400                       # Energy for read commands per rank (pJ)
system.mem_ctrls2.writeEnergy::0            985251600                       # Energy for write commands per rank (pJ)
system.mem_ctrls2.writeEnergy::1            981110880                       # Energy for write commands per rank (pJ)
system.mem_ctrls2.refreshEnergy::0         7813007280                       # Energy for refresh commands per rank (pJ)
system.mem_ctrls2.refreshEnergy::1         7813007280                       # Energy for refresh commands per rank (pJ)
system.mem_ctrls2.actBackEnergy::0        48335837265                       # Energy for active background per rank (pJ)
system.mem_ctrls2.actBackEnergy::1        47824506225                       # Energy for active background per rank (pJ)
system.mem_ctrls2.preBackEnergy::0        29372394000                       # Energy for precharge background per rank (pJ)
system.mem_ctrls2.preBackEnergy::1        29820930000                       # Energy for precharge background per rank (pJ)
system.mem_ctrls2.totalEnergy::0          90828916680                       # Total energy per rank (pJ)
system.mem_ctrls2.totalEnergy::1          90720133875                       # Total energy per rank (pJ)
system.mem_ctrls2.averagePower::0          759.309469                       # Core power per rank (mW)
system.mem_ctrls2.averagePower::1          758.400069                       # Core power per rank (mW)
system.mem_ctrls3.bytes_read::ruby.dir_cntrl3     41741312                       # Number of bytes read from this memory
system.mem_ctrls3.bytes_read::total          41741312                       # Number of bytes read from this memory
system.mem_ctrls3.bytes_written::ruby.dir_cntrl3     19417088                       # Number of bytes written to this memory
system.mem_ctrls3.bytes_written::total       19417088                       # Number of bytes written to this memory
system.mem_ctrls3.num_reads::ruby.dir_cntrl3       652208                       # Number of read requests responded to by this memory
system.mem_ctrls3.num_reads::total             652208                       # Number of read requests responded to by this memory
system.mem_ctrls3.num_writes::ruby.dir_cntrl3       303392                       # Number of write requests responded to by this memory
system.mem_ctrls3.num_writes::total            303392                       # Number of write requests responded to by this memory
system.mem_ctrls3.bw_read::ruby.dir_cntrl3    348942483                       # Total read bandwidth from this memory (bytes/s)
system.mem_ctrls3.bw_read::total            348942483                       # Total read bandwidth from this memory (bytes/s)
system.mem_ctrls3.bw_write::ruby.dir_cntrl3    162319931                       # Write bandwidth from this memory (bytes/s)
system.mem_ctrls3.bw_write::total           162319931                       # Write bandwidth from this memory (bytes/s)
system.mem_ctrls3.bw_total::ruby.dir_cntrl3    511262415                       # Total bandwidth to/from this memory (bytes/s)
system.mem_ctrls3.bw_total::total           511262415                       # Total bandwidth to/from this memory (bytes/s)
system.mem_ctrls3.readReqs                     652209                       # Number of read requests accepted
system.mem_ctrls3.writeReqs                    303392                       # Number of write requests accepted
system.mem_ctrls3.readBursts                   652209                       # Number of DRAM read bursts, including those serviced by the write queue
system.mem_ctrls3.writeBursts                  303392                       # Number of DRAM write bursts, including those merged in the write queue
system.mem_ctrls3.bytesReadDRAM              41725056                       # Total number of bytes read from DRAM
system.mem_ctrls3.bytesReadWrQ                  16320                       # Total number of bytes read from write queue
system.mem_ctrls3.bytesWritten               19416832                       # Total number of bytes written to DRAM
system.mem_ctrls3.bytesReadSys               41741376                       # Total read bytes from the system interface side
system.mem_ctrls3.bytesWrittenSys            19417088                       # Total written bytes from the system interface side
system.mem_ctrls3.servicedByWrQ                   255                       # Number of DRAM read bursts serviced by the write queue
system.mem_ctrls3.mergedWrBursts                    0                       # Number of DRAM write bursts merged with an existing one
system.mem_ctrls3.neitherReadNorWriteReqs            0                       # Number of requests that are neither read nor write
system.mem_ctrls3.perBankRdBursts::0            40621                       # Per bank write bursts
system.mem_ctrls3.perBankRdBursts::1            40930                       # Per bank write bursts
system.mem_ctrls3.perBankRdBursts::2            40550                       # Per bank write bursts
system.mem_ctrls3.perBankRdBursts::3            40745                       # Per bank write bursts
system.mem_ctrls3.perBankRdBursts::4            40384                       # Per bank write bursts
system.mem_ctrls3.perBankRdBursts::5            40836                       # Per bank write bursts
system.mem_ctrls3.perBankRdBursts::6            41590                       # Per bank write bursts
system.mem_ctrls3.perBankRdBursts::7            41142                       # Per bank write bursts
system.mem_ctrls3.perBankRdBursts::8            40159                       # Per bank write bursts
system.mem_ctrls3.perBankRdBursts::9            40628                       # Per bank write bursts
system.mem_ctrls3.perBankRdBursts::10           40600                       # Per bank write bursts
system.mem_ctrls3.perBankRdBursts::11           40846                       # Per bank write bursts
system.mem_ctrls3.perBankRdBursts::12           40277                       # Per bank write bursts
system.mem_ctrls3.perBankRdBursts::13           40625                       # Per bank write bursts
system.mem_ctrls3.perBankRdBursts::14           41074                       # Per bank write bursts
system.mem_ctrls3.perBankRdBursts::15           40947                       # Per bank write bursts
system.mem_ctrls3.perBankWrBursts::0            18944                       # Per bank write bursts
system.mem_ctrls3.perBankWrBursts::1            19024                       # Per bank write bursts
system.mem_ctrls3.perBankWrBursts::2            19035                       # Per bank write bursts
system.mem_ctrls3.perBankWrBursts::3            19023                       # Per bank write bursts
system.mem_ctrls3.perBankWrBursts::4            18804                       # Per bank write bursts
system.mem_ctrls3.perBankWrBursts::5            18974                       # Per bank write bursts
system.mem_ctrls3.perBankWrBursts::6            19125                       # Per bank write bursts
system.mem_ctrls3.perBankWrBursts::7            19147                       # Per bank write bursts
system.mem_ctrls3.perBankWrBursts::8            18810                       # Per bank write bursts
system.mem_ctrls3.perBankWrBursts::9            19101                       # Per bank write bursts
system.mem_ctrls3.perBankWrBursts::10           18914                       # Per bank write bursts
system.mem_ctrls3.perBankWrBursts::11           18953                       # Per bank write bursts
system.mem_ctrls3.perBankWrBursts::12           18747                       # Per bank write bursts
system.mem_ctrls3.perBankWrBursts::13           18848                       # Per bank write bursts
system.mem_ctrls3.perBankWrBursts::14           19031                       # Per bank write bursts
system.mem_ctrls3.perBankWrBursts::15           18908                       # Per bank write bursts
system.mem_ctrls3.numRdRetry                    57665                       # Number of times read queue was full causing retry
system.mem_ctrls3.numWrRetry                    11286                       # Number of times write queue was full causing retry
system.mem_ctrls3.totGap                 119621580500                       # Total gap between requests
system.mem_ctrls3.readPktSize::0                    0                       # Read request sizes (log2)
system.mem_ctrls3.readPktSize::1                    0                       # Read request sizes (log2)
system.mem_ctrls3.readPktSize::2                    0                       # Read request sizes (log2)
system.mem_ctrls3.readPktSize::3                    0                       # Read request sizes (log2)
system.mem_ctrls3.readPktSize::4                    0                       # Read request sizes (log2)
system.mem_ctrls3.readPktSize::5                    0                       # Read request sizes (log2)
system.mem_ctrls3.readPktSize::6               652209                       # Read request sizes (log2)
system.mem_ctrls3.writePktSize::0                   0                       # Write request sizes (log2)
system.mem_ctrls3.writePktSize::1                   0                       # Write request sizes (log2)
system.mem_ctrls3.writePktSize::2                   0                       # Write request sizes (log2)
system.mem_ctrls3.writePktSize::3                   0                       # Write request sizes (log2)
system.mem_ctrls3.writePktSize::4                   0                       # Write request sizes (log2)
system.mem_ctrls3.writePktSize::5                   0                       # Write request sizes (log2)
system.mem_ctrls3.writePktSize::6              303392                       # Write request sizes (log2)
system.mem_ctrls3.rdQLenPdf::0                 170767                       # What read queue length does an incoming req see
system.mem_ctrls3.rdQLenPdf::1                  22422                       # What read queue length does an incoming req see
system.mem_ctrls3.rdQLenPdf::2                  22836                       # What read queue length does an incoming req see
system.mem_ctrls3.rdQLenPdf::3                  23565                       # What read queue length does an incoming req see
system.mem_ctrls3.rdQLenPdf::4                  23780                       # What read queue length does an incoming req see
system.mem_ctrls3.rdQLenPdf::5                  23853                       # What read queue length does an incoming req see
system.mem_ctrls3.rdQLenPdf::6                  23486                       # What read queue length does an incoming req see
system.mem_ctrls3.rdQLenPdf::7                  22748                       # What read queue length does an incoming req see
system.mem_ctrls3.rdQLenPdf::8                  21503                       # What read queue length does an incoming req see
system.mem_ctrls3.rdQLenPdf::9                  20392                       # What read queue length does an incoming req see
system.mem_ctrls3.rdQLenPdf::10                 19050                       # What read queue length does an incoming req see
[...]
system.ruby.L2Cache_Controller.MT_MB.L2_Replacement_clean::total            3                      
system.ruby.L2Cache_Controller.MT_MB.Exclusive_Unblock |      218558      5.21%      5.21% |      128507      3.07%      8.28% |      127261      3.04%     11.32% |      129435      3.09%     14.41% |      127314      3.04%     17.44% |      126526      3.02%     20.46% |      126670      3.02%     23.49% |      126261      3.01%     26.50% |      126626      3.02%     29.52% |      127274      3.04%     32.56% |      129170      3.08%     35.64% |      128067      3.06%     38.69% |      126715      3.02%     41.72% |      127027      3.03%     44.75% |      125635      3.00%     47.75% |      125610      3.00%     50.74% |      126551      3.02%     53.76% |      126507      3.02%     56.78% |      126870      3.03%     59.81% |      126911      3.03%     62.84% |      126954      3.03%     65.87% |      141341      3.37%     69.24% |      135177      3.23%     72.46% |      125867      3.00%     75.47% |      126348      3.01%     78.48% |      126763      3.02%     81.51% |      126504      3.02%     84.52% |      126209      3.01%     87.54% |      127565      3.04%     90.58% |      126640      3.02%     93.60% |      130430      3.11%     96.71% |      137717      3.29%    100.00%
system.ruby.L2Cache_Controller.MT_MB.Exclusive_Unblock::total      4191010                      
system.ruby.L2Cache_Controller.MT_IIB.L1_GETS |           0      0.00%      0.00% |           0      0.00%      0.00% |           0      0.00%      0.00% |           0      0.00%      0.00% |           0      0.00%      0.00% |           0      0.00%      0.00% |           0      0.00%      0.00% |           0      0.00%      0.00% |           0      0.00%      0.00% |           0      0.00%      0.00% |           2     50.00%     50.00% |           0      0.00%     50.00% |           0      0.00%     50.00% |           0      0.00%     50.00% |           0      0.00%     50.00% |           0      0.00%     50.00% |           0      0.00%     50.00% |           0      0.00%     50.00% |           0      0.00%     50.00% |           0      0.00%     50.00% |           0      0.00%     50.00% |           0      0.00%     50.00% |           1     25.00%     75.00% |           0      0.00%     75.00% |           0      0.00%     75.00% |           0      0.00%     75.00% |           1     25.00%    100.00% |           0      0.00%    100.00% |           0      0.00%    100.00% |           0      0.00%    100.00% |           0      0.00%    100.00% |           0      0.00%    100.00%
system.ruby.L2Cache_Controller.MT_IIB.L1_GETS::total            4                      
system.ruby.L2Cache_Controller.MT_IIB.L1_PUTX |          17      1.82%      1.82% |          14      1.50%      3.32% |          24      2.57%      5.89% |          15      1.61%      7.49% |          15      1.61%      9.10% |          25      2.68%     11.78% |          18      1.93%     13.70% |          28      3.00%     16.70% |          22      2.36%     19.06% |          30      3.21%     22.27% |          27      2.89%     25.16% |          22      2.36%     27.52% |          33      3.53%     31.05% |          35      3.75%     34.80% |          34      3.64%     38.44% |          32      3.43%     41.86% |          23      2.46%     44.33% |          36      3.85%     48.18% |          36      3.85%     52.03% |          38      4.07%     56.10% |          35      3.75%     59.85% |          39      4.18%     64.03% |          35      3.75%     67.77% |          43      4.60%     72.38% |          37      3.96%     76.34% |          33      3.53%     79.87% |          35      3.75%     83.62% |          52      5.57%     89.19% |          35      3.75%     92.93% |          29      3.10%     96.04% |          16      1.71%     97.75% |          21      2.25%    100.00%
system.ruby.L2Cache_Controller.MT_IIB.L1_PUTX::total          934                      
system.ruby.L2Cache_Controller.MT_IIB.WB_Data |           0      0.00%      0.00% |           0      0.00%      0.00% |           0      0.00%      0.00% |           0      0.00%      0.00% |           0      0.00%      0.00% |           0      0.00%      0.00% |           0      0.00%      0.00% |           0      0.00%      0.00% |           0      0.00%      0.00% |           0      0.00%      0.00% |           0      0.00%      0.00% |           0      0.00%      0.00% |           0      0.00%      0.00% |           0      0.00%      0.00% |           0      0.00%      0.00% |           0      0.00%      0.00% |           0      0.00%      0.00% |           0      0.00%      0.00% |           0      0.00%      0.00% |           0      0.00%      0.00% |           0      0.00%      0.00% |           2     40.00%     40.00% |           0      0.00%     40.00% |           0      0.00%     40.00% |           0      0.00%     40.00% |           0      0.00%     40.00% |           1     20.00%     60.00% |           0      0.00%     60.00% |           0      0.00%     60.00% |           0      0.00%     60.00% |           0      0.00%     60.00% |           2     40.00%    100.00%
system.ruby.L2Cache_Controller.MT_IIB.WB_Data::total            5                      
system.ruby.L2Cache_Controller.MT_IIB.WB_Data_clean |        1344      3.10%      3.10% |        1313      3.03%      6.13% |        1226      2.83%      8.96% |        1193      2.75%     11.71% |        1269      2.93%     14.64% |        1302      3.00%     17.64% |        1284      2.96%     20.60% |        1267      2.92%     23.52% |        1173      2.71%     26.23% |        1224      2.82%     29.05% |        1347      3.11%     32.16% |        1293      2.98%     35.14% |        1324      3.05%     38.20% |        1358      3.13%     41.33% |        1393      3.21%     44.54% |        1351      3.12%     47.66% |        1345      3.10%     50.76% |        1443      3.33%     54.09% |        1500      3.46%     57.55% |        1517      3.50%     61.05% |        1457      3.36%     64.41% |        1448      3.34%     67.75% |        1492      3.44%     71.19% |        1401      3.23%     74.42% |        1342      3.10%     77.52% |        1359      3.13%     80.65% |        1396      3.22%     83.87% |        1390      3.21%     87.08% |        1448      3.34%     90.42% |        1445      3.33%     93.75% |        1399      3.23%     96.98% |        1309      3.02%    100.00%
system.ruby.L2Cache_Controller.MT_IIB.WB_Data_clean::total        43352                      
system.ruby.L2Cache_Controller.MT_IIB.Unblock |          59      1.81%      1.81% |          57      1.75%      3.55% |         136      4.16%      7.72% |         102      3.12%     10.84% |          95      2.91%     13.75% |          83      2.54%     16.29% |          90      2.76%     19.04% |          80      2.45%     21.49% |         198      6.06%     27.56% |         149      4.56%     32.12% |         104      3.18%     35.30% |         103      3.15%     38.46% |          81      2.48%     40.94% |          73      2.24%     43.17% |          99      3.03%     46.20% |         106      3.25%     49.45% |          87      2.66%     52.11% |          71      2.17%     54.29% |          95      2.91%     57.20% |          88      2.69%     59.89% |         151      4.62%     64.51% |         114      3.49%     68.00% |         117      3.58%     71.59% |          86      2.63%     74.22% |          92      2.82%     77.04% |         116      3.55%     80.59% |         102      3.12%     83.71% |         100      3.06%     86.77% |         141      4.32%     91.09% |         108      3.31%     94.40% |          87      2.66%     97.06% |          96      2.94%    100.00%
system.ruby.L2Cache_Controller.MT_IIB.Unblock::total         3266                      
system.ruby.L2Cache_Controller.MT_IB.L1_PUTX |           0      0.00%      0.00% |           0      0.00%      0.00% |           0      0.00%      0.00% |           1     16.67%     16.67% |           0      0.00%     16.67% |           0      0.00%     16.67% |           0      0.00%     16.67% |           0      0.00%     16.67% |           1     16.67%     33.33% |           0      0.00%     33.33% |           0      0.00%     33.33% |           1     16.67%     50.00% |           0      0.00%     50.00% |           0      0.00%     50.00% |           0      0.00%     50.00% |           0      0.00%     50.00% |           1     16.67%     66.67% |           0      0.00%     66.67% |           0      0.00%     66.67% |           0      0.00%     66.67% |           0      0.00%     66.67% |           0      0.00%     66.67% |           1     16.67%     83.33% |           0      0.00%     83.33% |           1     16.67%    100.00% |           0      0.00%    100.00% |           0      0.00%    100.00% |           0      0.00%    100.00% |           0      0.00%    100.00% |           0      0.00%    100.00% |           0      0.00%    100.00% |           0      0.00%    100.00%
system.ruby.L2Cache_Controller.MT_IB.L1_PUTX::total            6                      
system.ruby.L2Cache_Controller.MT_IB.WB_Data_clean |          59      1.81%      1.81% |          57      1.75%      3.55% |         136      4.16%      7.72% |         102      3.12%     10.84% |          95      2.91%     13.75% |          83      2.54%     16.29% |          90      2.76%     19.04% |          80      2.45%     21.49% |         198      6.06%     27.56% |         149      4.56%     32.12% |         104      3.18%     35.30% |         103      3.15%     38.46% |          81      2.48%     40.94% |          73      2.24%     43.17% |          99      3.03%     46.20% |         106      3.25%     49.45% |          87      2.66%     52.11% |          71      2.17%     54.29% |          95      2.91%     57.20% |          88      2.69%     59.89% |         151      4.62%     64.51% |         114      3.49%     68.00% |         117      3.58%     71.59% |          86      2.63%     74.22% |          92      2.82%     77.04% |         116      3.55%     80.59% |         102      3.12%     83.71% |         100      3.06%     86.77% |         141      4.32%     91.09% |         108      3.31%     94.40% |          87      2.66%     97.06% |          96      2.94%    100.00%
system.ruby.L2Cache_Controller.MT_IB.WB_Data_clean::total         3266                      
system.ruby.L2Cache_Controller.MT_SB.L1_GETS |           0      0.00%      0.00% |           0      0.00%      0.00% |           0      0.00%      0.00% |           0      0.00%      0.00% |           0      0.00%      0.00% |           0      0.00%      0.00% |           0      0.00%      0.00% |           0      0.00%      0.00% |           0      0.00%      0.00% |           0      0.00%      0.00% |           0      0.00%      0.00% |           0      0.00%      0.00% |           0      0.00%      0.00% |           0      0.00%      0.00% |           0      0.00%      0.00% |           0      0.00%      0.00% |           1    100.00%    100.00% |           0      0.00%    100.00% |           0      0.00%    100.00% |           0      0.00%    100.00% |           0      0.00%    100.00% |           0      0.00%    100.00% |           0      0.00%    100.00% |           0      0.00%    100.00% |           0      0.00%    100.00% |           0      0.00%    100.00% |           0      0.00%    100.00% |           0      0.00%    100.00% |           0      0.00%    100.00% |           0      0.00%    100.00% |           0      0.00%    100.00% |           0      0.00%    100.00%
system.ruby.L2Cache_Controller.MT_SB.L1_GETS::total            1                      
system.ruby.L2Cache_Controller.MT_SB.L1_PUTX |           1      1.89%      1.89% |           2      3.77%      5.66% |           1      1.89%      7.55% |           2      3.77%     11.32% |           0      0.00%     11.32% |           0      0.00%     11.32% |           1      1.89%     13.21% |           0      0.00%     13.21% |           0      0.00%     13.21% |           2      3.77%     16.98% |           1      1.89%     18.87% |           2      3.77%     22.64% |           2      3.77%     26.42% |           3      5.66%     32.08% |           5      9.43%     41.51% |           2      3.77%     45.28% |           4      7.55%     52.83% |           0      0.00%     52.83% |           0      0.00%     52.83% |           3      5.66%     58.49% |           0      0.00%     58.49% |           2      3.77%     62.26% |           4      7.55%     69.81% |           1      1.89%     71.70% |           2      3.77%     75.47% |           2      3.77%     79.25% |           0      0.00%     79.25% |           3      5.66%     84.91% |           1      1.89%     86.79% |           2      3.77%     90.57% |           2      3.77%     94.34% |           3      5.66%    100.00%
system.ruby.L2Cache_Controller.MT_SB.L1_PUTX::total           53                      
system.ruby.L2Cache_Controller.MT_SB.Unblock |        1344      3.10%      3.10% |        1313      3.03%      6.13% |        1226      2.83%      8.96% |        1193      2.75%     11.71% |        1269      2.93%     14.63% |        1302      3.00%     17.64% |        1284      2.96%     20.60% |        1267      2.92%     23.52% |        1173      2.71%     26.23% |        1224      2.82%     29.05% |        1347      3.11%     32.16% |        1293      2.98%     35.14% |        1324      3.05%     38.19% |        1358      3.13%     41.32% |        1393      3.21%     44.54% |        1351      3.12%     47.65% |        1345      3.10%     50.76% |        1443      3.33%     54.08% |        1500      3.46%     57.54% |        1517      3.50%     61.04% |        1457      3.36%     64.40% |        1450      3.34%     67.75% |        1492      3.44%     71.19% |        1401      3.23%     74.42% |        1342      3.10%     77.51% |        1359      3.13%     80.65% |        1397      3.22%     83.87% |        1390      3.21%     87.08% |        1448      3.34%     90.42% |        1445      3.33%     93.75% |        1399      3.23%     96.98% |        1311      3.02%    100.00%
system.ruby.L2Cache_Controller.MT_SB.Unblock::total        43357                      
system.ruby.SimicsNetworkPortInterface_Controller.MessageSend |      461131     19.43%     19.43% |     1186791     50.00%     69.43% |       91229      3.84%     73.27% |       95143      4.01%     77.28% |       88985      3.75%     81.03% |       91639      3.86%     84.89% |       91679      3.86%     88.75% |       97871      4.12%     92.88% |       83269      3.51%     96.38% |       85845      3.62%    100.00% |           0      0.00%    100.00% |           0      0.00%    100.00% |           0      0.00%    100.00% |           0      0.00%    100.00% |           0      0.00%    100.00% |           0      0.00%    100.00% |           0      0.00%    100.00% |           0      0.00%    100.00% |           0      0.00%    100.00% |           0      0.00%    100.00% |           0      0.00%    100.00% |           0      0.00%    100.00% |           0      0.00%    100.00% |           0      0.00%    100.00% |           0      0.00%    100.00% |           0      0.00%    100.00% |           0      0.00%    100.00% |           0      0.00%    100.00% |           0      0.00%    100.00% |           0      0.00%    100.00% |           0      0.00%    100.00% |           0      0.00%    100.00%
system.ruby.SimicsNetworkPortInterface_Controller.MessageSend::total      2373582                      
system.ruby.SimicsNetworkPortInterface_Controller.MessageRecv |      461131     19.43%     19.43% |     1186791     50.00%     69.43% |       91229      3.84%     73.27% |       95143      4.01%     77.28% |       88985      3.75%     81.03% |       91639      3.86%     84.89% |       91679      3.86%     88.75% |       97871      4.12%     92.88% |       83269      3.51%     96.38% |       85845      3.62%    100.00% |           0      0.00%    100.00% |           0      0.00%    100.00% |           0      0.00%    100.00% |           0      0.00%    100.00% |           0      0.00%    100.00% |           0      0.00%    100.00% |           0      0.00%    100.00% |           0      0.00%    100.00% |           0      0.00%    100.00% |           0      0.00%    100.00% |           0      0.00%    100.00% |           0      0.00%    100.00% |           0      0.00%    100.00% |           0      0.00%    100.00% |           0      0.00%    100.00% |           0      0.00%    100.00% |           0      0.00%    100.00% |           0      0.00%    100.00% |           0      0.00%    100.00% |           0      0.00%    100.00% |           0      0.00%    100.00% |           0      0.00%    100.00%
system.ruby.SimicsNetworkPortInterface_Controller.MessageRecv::total      2373582                      
system.ruby.SimicsNetworkPortInterface_Controller.A.MessageSend |      461131     19.43%     19.43% |     1186791     50.00%     69.43% |       91229      3.84%     73.27% |       95143      4.01%     77.28% |       88985      3.75%     81.03% |       91639      3.86%     84.89% |       91679      3.86%     88.75% |       97871      4.12%     92.88% |       83269      3.51%     96.38% |       85845      3.62%    100.00% |           0      0.00%    100.00% |           0      0.00%    100.00% |           0      0.00%    100.00% |           0      0.00%    100.00% |           0      0.00%    100.00% |           0      0.00%    100.00% |           0      0.00%    100.00% |           0      0.00%    100.00% |           0      0.00%    100.00% |           0      0.00%    100.00% |           0      0.00%    100.00% |           0      0.00%    100.00% |           0      0.00%    100.00% |           0      0.00%    100.00% |           0      0.00%    100.00% |           0      0.00%    100.00% |           0      0.00%    100.00% |           0      0.00%    100.00% |           0      0.00%    100.00% |           0      0.00%    100.00% |           0      0.00%    100.00% |           0      0.00%    100.00%
system.ruby.SimicsNetworkPortInterface_Controller.A.MessageSend::total      2373582                      
system.ruby.SimicsNetworkPortInterface_Controller.A.MessageRecv |      461131     19.43%     19.43% |     1186791     50.00%     69.43% |       91229      3.84%     73.27% |       95143      4.01%     77.28% |       88985      3.75%     81.03% |       91639      3.86%     84.89% |       91679      3.86%     88.75% |       97871      4.12%     92.88% |       83269      3.51%     96.38% |       85845      3.62%    100.00% |           0      0.00%    100.00% |           0      0.00%    100.00% |           0      0.00%    100.00% |           0      0.00%    100.00% |           0      0.00%    100.00% |           0      0.00%    100.00% |           0      0.00%    100.00% |           0      0.00%    100.00% |           0      0.00%    100.00% |           0      0.00%    100.00% |           0      0.00%    100.00% |           0      0.00%    100.00% |           0      0.00%    100.00% |           0      0.00%    100.00% |           0      0.00%    100.00% |           0      0.00%    100.00% |           0      0.00%    100.00% |           0      0.00%    100.00% |           0      0.00%    100.00% |           0      0.00%    100.00% |           0      0.00%    100.00% |           0      0.00%    100.00%
system.ruby.SimicsNetworkPortInterface_Controller.A.MessageRecv::total      2373582                      
system.switch_cpus.kern.inst.arm                    0                       # number of arm instructions executed
system.switch_cpus.kern.inst.quiesce                0                       # number of quiesce instructions executed

---------- End Simulation Statistics   ----------
