
---------- Begin Simulation Statistics ----------
sim_seconds                                  0.134306                       # Number of seconds simulated
sim_ticks                                134306121000                       # Number of ticks simulated
final_tick                               5310474199500                       # Number of ticks from beginning of simulation (restored from checkpoints and never reset)
sim_freq                                 1000000000000                       # Frequency of simulated ticks
host_inst_rate                                  37233                       # Simulator instruction rate (inst/s)
host_op_rate                                    63684                       # Simulator op (including micro ops) rate (op/s)
host_tick_rate                              106328757                       # Simulator tick rate (ticks/s)
host_mem_usage                                3665124                       # Number of bytes of host memory used
host_seconds                                  1263.12                       # Real time elapsed on the host
sim_insts                                    47030008                       # Number of instructions simulated
sim_ops                                      80440381                       # Number of ops (including micro ops) simulated
system.voltage_domain.voltage                       1                       # Voltage in Volts
system.clk_domain.clock                           500                       # Clock period in ticks
system.mem_ctrls0.bytes_read::ruby.dir_cntrl0     21432064                       # Number of bytes read from this memory
system.mem_ctrls0.bytes_read::total          21432064                       # Number of bytes read from this memory
system.mem_ctrls0.bytes_written::ruby.dir_cntrl0     13560512                       # Number of bytes written to this memory
system.mem_ctrls0.bytes_written::total       13560512                       # Number of bytes written to this memory
system.mem_ctrls0.num_reads::ruby.dir_cntrl0       334876                       # Number of read requests responded to by this memory
system.mem_ctrls0.num_reads::total             334876                       # Number of read requests responded to by this memory
system.mem_ctrls0.num_writes::ruby.dir_cntrl0       211883                       # Number of write requests responded to by this memory
system.mem_ctrls0.num_writes::total            211883                       # Number of write requests responded to by this memory
system.mem_ctrls0.bw_read::ruby.dir_cntrl0    159576227                       # Total read bandwidth from this memory (bytes/s)
system.mem_ctrls0.bw_read::total            159576227                       # Total read bandwidth from this memory (bytes/s)
system.mem_ctrls0.bw_write::ruby.dir_cntrl0    100967193                       # Write bandwidth from this memory (bytes/s)
system.mem_ctrls0.bw_write::total           100967193                       # Write bandwidth from this memory (bytes/s)
system.mem_ctrls0.bw_total::ruby.dir_cntrl0    260543419                       # Total bandwidth to/from this memory (bytes/s)
system.mem_ctrls0.bw_total::total           260543419                       # Total bandwidth to/from this memory (bytes/s)
system.mem_ctrls0.readReqs                     334876                       # Number of read requests accepted
system.mem_ctrls0.writeReqs                    211883                       # Number of write requests accepted
system.mem_ctrls0.readBursts                   334876                       # Number of DRAM read bursts, including those serviced by the write queue
system.mem_ctrls0.writeBursts                  211883                       # Number of DRAM write bursts, including those merged in the write queue
system.mem_ctrls0.bytesReadDRAM              21430592                       # Total number of bytes read from DRAM
system.mem_ctrls0.bytesReadWrQ                   1472                       # Total number of bytes read from write queue
system.mem_ctrls0.bytesWritten               13560256                       # Total number of bytes written to DRAM
system.mem_ctrls0.bytesReadSys               21432064                       # Total read bytes from the system interface side
system.mem_ctrls0.bytesWrittenSys            13560512                       # Total written bytes from the system interface side
system.mem_ctrls0.servicedByWrQ                    23                       # Number of DRAM read bursts serviced by the write queue
system.mem_ctrls0.mergedWrBursts                    0                       # Number of DRAM write bursts merged with an existing one
system.mem_ctrls0.neitherReadNorWriteReqs            0                       # Number of requests that are neither read nor write
system.mem_ctrls0.perBankRdBursts::0            20668                       # Per bank write bursts
system.mem_ctrls0.perBankRdBursts::1            21301                       # Per bank write bursts
system.mem_ctrls0.perBankRdBursts::2            20873                       # Per bank write bursts
system.mem_ctrls0.perBankRdBursts::3            21330                       # Per bank write bursts
system.mem_ctrls0.perBankRdBursts::4            20939                       # Per bank write bursts
system.mem_ctrls0.perBankRdBursts::5            21144                       # Per bank write bursts
system.mem_ctrls0.perBankRdBursts::6            21043                       # Per bank write bursts
system.mem_ctrls0.perBankRdBursts::7            21033                       # Per bank write bursts
system.mem_ctrls0.perBankRdBursts::8            20829                       # Per bank write bursts
system.mem_ctrls0.perBankRdBursts::9            21027                       # Per bank write bursts
system.mem_ctrls0.perBankRdBursts::10           20790                       # Per bank write bursts
system.mem_ctrls0.perBankRdBursts::11           21181                       # Per bank write bursts
system.mem_ctrls0.perBankRdBursts::12           20637                       # Per bank write bursts
system.mem_ctrls0.perBankRdBursts::13           20547                       # Per bank write bursts
system.mem_ctrls0.perBankRdBursts::14           20757                       # Per bank write bursts
system.mem_ctrls0.perBankRdBursts::15           20754                       # Per bank write bursts
system.mem_ctrls0.perBankWrBursts::0            13292                       # Per bank write bursts
system.mem_ctrls0.perBankWrBursts::1            13267                       # Per bank write bursts
system.mem_ctrls0.perBankWrBursts::2            13187                       # Per bank write bursts
system.mem_ctrls0.perBankWrBursts::3            13397                       # Per bank write bursts
system.mem_ctrls0.perBankWrBursts::4            13225                       # Per bank write bursts
system.mem_ctrls0.perBankWrBursts::5            13345                       # Per bank write bursts
system.mem_ctrls0.perBankWrBursts::6            13251                       # Per bank write bursts
system.mem_ctrls0.perBankWrBursts::7            13448                       # Per bank write bursts
system.mem_ctrls0.perBankWrBursts::8            13162                       # Per bank write bursts
system.mem_ctrls0.perBankWrBursts::9            13385                       # Per bank write bursts
system.mem_ctrls0.perBankWrBursts::10           13162                       # Per bank write bursts
system.mem_ctrls0.perBankWrBursts::11           13101                       # Per bank write bursts
system.mem_ctrls0.perBankWrBursts::12           13061                       # Per bank write bursts
system.mem_ctrls0.perBankWrBursts::13           13073                       # Per bank write bursts
system.mem_ctrls0.perBankWrBursts::14           13361                       # Per bank write bursts
system.mem_ctrls0.perBankWrBursts::15           13162                       # Per bank write bursts
system.mem_ctrls0.numRdRetry                        0                       # Number of times read queue was full causing retry
system.mem_ctrls0.numWrRetry                      130                       # Number of times write queue was full causing retry
system.mem_ctrls0.totGap                 134305565000                       # Total gap between requests
system.mem_ctrls0.readPktSize::0                    0                       # Read request sizes (log2)
system.mem_ctrls0.readPktSize::1                    0                       # Read request sizes (log2)
system.mem_ctrls0.readPktSize::2                    0                       # Read request sizes (log2)
system.mem_ctrls0.readPktSize::3                    0                       # Read request sizes (log2)
system.mem_ctrls0.readPktSize::4                    0                       # Read request sizes (log2)
system.mem_ctrls0.readPktSize::5                    0                       # Read request sizes (log2)
system.mem_ctrls0.readPktSize::6               334876                       # Read request sizes (log2)
system.mem_ctrls0.writePktSize::0                   0                       # Write request sizes (log2)
system.mem_ctrls0.writePktSize::1                   0                       # Write request sizes (log2)
system.mem_ctrls0.writePktSize::2                   0                       # Write request sizes (log2)
system.mem_ctrls0.writePktSize::3                   0                       # Write request sizes (log2)
system.mem_ctrls0.writePktSize::4                   0                       # Write request sizes (log2)
system.mem_ctrls0.writePktSize::5                   0                       # Write request sizes (log2)
system.mem_ctrls0.writePktSize::6              211883                       # Write request sizes (log2)
system.mem_ctrls0.rdQLenPdf::0                 231669                       # What read queue length does an incoming req see
system.mem_ctrls0.rdQLenPdf::1                  43444                       # What read queue length does an incoming req see
system.mem_ctrls0.rdQLenPdf::2                  27811                       # What read queue length does an incoming req see
system.mem_ctrls0.rdQLenPdf::3                  14974                       # What read queue length does an incoming req see
system.mem_ctrls0.rdQLenPdf::4                   7203                       # What read queue length does an incoming req see
system.mem_ctrls0.rdQLenPdf::5                   4447                       # What read queue length does an incoming req see
system.mem_ctrls0.rdQLenPdf::6                   2731                       # What read queue length does an incoming req see
system.mem_ctrls0.rdQLenPdf::7                   1727                       # What read queue length does an incoming req see
system.mem_ctrls0.rdQLenPdf::8                    544                       # What read queue length does an incoming req see
system.mem_ctrls0.rdQLenPdf::9                    197                       # What read queue length does an incoming req see
system.mem_ctrls0.rdQLenPdf::10                    67                       # What read queue length does an incoming req see
system.mem_ctrls0.rdQLenPdf::11                    30                       # What read queue length does an incoming req see
system.mem_ctrls0.rdQLenPdf::12                     7                       # What read queue length does an incoming req see
system.mem_ctrls0.rdQLenPdf::13                     2                       # What read queue length does an incoming req see
system.mem_ctrls0.rdQLenPdf::14                     0                       # What read queue length does an incoming req see
system.mem_ctrls0.rdQLenPdf::15                     0                       # What read queue length does an incoming req see
system.mem_ctrls0.rdQLenPdf::16                     0                       # What read queue length does an incoming req see
system.mem_ctrls0.rdQLenPdf::17                     0                       # What read queue length does an incoming req see
system.mem_ctrls0.rdQLenPdf::18                     0                       # What read queue length does an incoming req see
system.mem_ctrls0.rdQLenPdf::19                     0                       # What read queue length does an incoming req see
system.mem_ctrls0.rdQLenPdf::20                     0                       # What read queue length does an incoming req see
system.mem_ctrls0.rdQLenPdf::21                     0                       # What read queue length does an incoming req see
system.mem_ctrls0.rdQLenPdf::22                     0                       # What read queue length does an incoming req see
system.mem_ctrls0.rdQLenPdf::23                     0                       # What read queue length does an incoming req see
system.mem_ctrls0.rdQLenPdf::24                     0                       # What read queue length does an incoming req see
system.mem_ctrls0.rdQLenPdf::25                     0                       # What read queue length does an incoming req see
system.mem_ctrls0.rdQLenPdf::26                     0                       # What read queue length does an incoming req see
system.mem_ctrls0.rdQLenPdf::27                     0                       # What read queue length does an incoming req see
system.mem_ctrls0.rdQLenPdf::28                     0                       # What read queue length does an incoming req see
system.mem_ctrls0.rdQLenPdf::29                     0                       # What read queue length does an incoming req see
system.mem_ctrls0.rdQLenPdf::30                     0                       # What read queue length does an incoming req see
system.mem_ctrls0.rdQLenPdf::31                     0                       # What read queue length does an incoming req see
system.mem_ctrls0.wrQLenPdf::0                  40258                       # What write queue length does an incoming req see
system.mem_ctrls0.wrQLenPdf::1                  41670                       # What write queue length does an incoming req see
system.mem_ctrls0.wrQLenPdf::2                  42100                       # What write queue length does an incoming req see
system.mem_ctrls0.wrQLenPdf::3                  42324                       # What write queue length does an incoming req see
system.mem_ctrls0.wrQLenPdf::4                  42566                       # What write queue length does an incoming req see
system.mem_ctrls0.wrQLenPdf::5                   1833                       # What write queue length does an incoming req see
system.mem_ctrls0.wrQLenPdf::6                    780                       # What write queue length does an incoming req see
system.mem_ctrls0.wrQLenPdf::7                    352                       # What write queue length does an incoming req see
system.mem_ctrls0.bytesPerActivate::samples       140629                       # Bytes accessed per row activation
system.mem_ctrls0.bytesPerActivate::mean   248.815820                       # Bytes accessed per row activation
system.mem_ctrls0.bytesPerActivate::gmean   177.560118                       # Bytes accessed per row activation
system.mem_ctrls0.bytesPerActivate::stdev   219.963350                       # Bytes accessed per row activation
system.mem_ctrls0.bytesPerActivate::0-127        46096     32.78%     32.78% # Bytes accessed per row activation
system.mem_ctrls0.bytesPerActivate::128-255        24793     17.63%     50.41% # Bytes accessed per row activation
system.mem_ctrls0.bytesPerActivate::256-383        52135     37.07%     87.48% # Bytes accessed per row activation
system.mem_ctrls0.bytesPerActivate::384-511         5613      3.99%     91.47% # Bytes accessed per row activation
system.mem_ctrls0.bytesPerActivate::512-639         2792      1.99%     93.46% # Bytes accessed per row activation
system.mem_ctrls0.bytesPerActivate::640-767         1616      1.15%     94.61% # Bytes accessed per row activation
system.mem_ctrls0.bytesPerActivate::768-895          936      0.67%     95.27% # Bytes accessed per row activation
system.mem_ctrls0.bytesPerActivate::896-1023          995      0.71%     95.98% # Bytes accessed per row activation
system.mem_ctrls0.bytesPerActivate::1024-1151         5653      4.02%    100.00% # Bytes accessed per row activation
system.mem_ctrls0.bytesPerActivate::total       140629                       # Bytes accessed per row activation
system.mem_ctrls0.rdPerTurnAround::samples        40259                       # Reads before turning the bus around for writes
system.mem_ctrls0.rdPerTurnAround::mean      8.317122                       # Reads before turning the bus around for writes
system.mem_ctrls0.rdPerTurnAround::stdev    24.446466                       # Reads before turning the bus around for writes
system.mem_ctrls0.rdPerTurnAround::0-127        40203     99.86%     99.86% # Reads before turning the bus around for writes
system.mem_ctrls0.rdPerTurnAround::128-255           55      0.14%    100.00% # Reads before turning the bus around for writes
system.mem_ctrls0.rdPerTurnAround::3968-4095            1      0.00%    100.00% # Reads before turning the bus around for writes
system.mem_ctrls0.rdPerTurnAround::total        40259                       # Reads before turning the bus around for writes
system.mem_ctrls0.wrPerTurnAround::samples        40259                       # Writes before turning the bus around for reads
system.mem_ctrls0.wrPerTurnAround::mean      5.262898                       # Writes before turning the bus around for reads
system.mem_ctrls0.wrPerTurnAround::gmean     5.209879                       # Writes before turning the bus around for reads
system.mem_ctrls0.wrPerTurnAround::stdev     0.897935                       # Writes before turning the bus around for reads
system.mem_ctrls0.wrPerTurnAround::4-7          38710     96.15%     96.15% # Writes before turning the bus around for reads
system.mem_ctrls0.wrPerTurnAround::8-11          1438      3.57%     99.72% # Writes before turning the bus around for reads
system.mem_ctrls0.wrPerTurnAround::12-15          105      0.26%     99.99% # Writes before turning the bus around for reads
system.mem_ctrls0.wrPerTurnAround::16-19            6      0.01%    100.00% # Writes before turning the bus around for reads
system.mem_ctrls0.wrPerTurnAround::total        40259                       # Writes before turning the bus around for reads
system.mem_ctrls0.totQLat                  5666312628                       # Total ticks spent queuing
system.mem_ctrls0.totMemAccLat            11944806378                       # Total ticks spent from burst creation until serviced by the DRAM
system.mem_ctrls0.totBusLat                1674265000                       # Total ticks spent in databus transfers
system.mem_ctrls0.avgQLat                    16921.79                       # Average queueing delay per DRAM burst
system.mem_ctrls0.avgBusLat                   5000.00                       # Average bus latency per DRAM burst
system.mem_ctrls0.avgMemAccLat               35671.79                       # Average memory access latency per DRAM burst
system.mem_ctrls0.avgRdBW                      159.57                       # Average DRAM read bandwidth in MiByte/s
system.mem_ctrls0.avgWrBW                      100.97                       # Average achieved write bandwidth in MiByte/s
system.mem_ctrls0.avgRdBWSys                   159.58                       # Average system read bandwidth in MiByte/s
system.mem_ctrls0.avgWrBWSys                   100.97                       # Average system write bandwidth in MiByte/s
system.mem_ctrls0.peakBW                     12800.00                       # Theoretical peak bandwidth in MiByte/s
system.mem_ctrls0.busUtil                        2.04                       # Data bus utilization in percentage
system.mem_ctrls0.busUtilRead                    1.25                       # Data bus utilization in percentage for reads
system.mem_ctrls0.busUtilWrite                   0.79                       # Data bus utilization in percentage for writes
system.mem_ctrls0.avgRdQLen                      1.06                       # Average read queue length when enqueuing
system.mem_ctrls0.avgWrQLen                      2.96                       # Average write queue length when enqueuing
system.mem_ctrls0.readRowHits                  261410                       # Number of row buffer hits during reads
system.mem_ctrls0.writeRowHits                 144692                       # Number of row buffer hits during writes
system.mem_ctrls0.readRowHitRate                78.07                       # Row buffer hit rate for reads
system.mem_ctrls0.writeRowHitRate               68.29                       # Row buffer hit rate for writes
system.mem_ctrls0.avgGap                    245639.42                       # Average gap between requests
system.mem_ctrls0.pageHitRate                   74.28                       # Row buffer hit rate, read and write combined
system.mem_ctrls0.memoryStateTime::IDLE   28062035250                       # Time in different power states
system.mem_ctrls0.memoryStateTime::REF     4484740000                       # Time in different power states
system.mem_ctrls0.memoryStateTime::PRE_PDN            0                       # Time in different power states
system.mem_ctrls0.memoryStateTime::ACT   101758524750                       # Time in different power states
system.mem_ctrls0.memoryStateTime::ACT_PDN            0                       # Time in different power states
system.mem_ctrls0.actEnergy::0              537395040                       # Energy for activate commands per rank (pJ)
system.mem_ctrls0.actEnergy::1              525760200                       # Energy for activate commands per rank (pJ)
system.mem_ctrls0.preEnergy::0              293221500                       # Energy for precharge commands per rank (pJ)
system.mem_ctrls0.preEnergy::1              286873125                       # Energy for precharge commands per rank (pJ)
system.mem_ctrls0.readEnergy::0            1312981800                       # Energy for read commands per rank (pJ)
system.mem_ctrls0.readEnergy::1            1298856000                       # Energy for read commands per rank (pJ)
system.mem_ctrls0.writeEnergy::0            689549760                       # Energy for write commands per rank (pJ)
system.mem_ctrls0.writeEnergy::1            683426160                       # Energy for write commands per rank (pJ)
system.mem_ctrls0.refreshEnergy::0         8772151440                       # Energy for refresh commands per rank (pJ)
system.mem_ctrls0.refreshEnergy::1         8772151440                       # Energy for refresh commands per rank (pJ)
system.mem_ctrls0.actBackEnergy::0        51606347355                       # Energy for active background per rank (pJ)
system.mem_ctrls0.actBackEnergy::1        51113998170                       # Energy for active background per rank (pJ)
system.mem_ctrls0.preBackEnergy::0        35314446000                       # Energy for precharge background per rank (pJ)
system.mem_ctrls0.preBackEnergy::1        35746331250                       # Energy for precharge background per rank (pJ)
system.mem_ctrls0.totalEnergy::0          98526092895                       # Total energy per rank (pJ)
system.mem_ctrls0.totalEnergy::1          98427396345                       # Total energy per rank (pJ)
system.mem_ctrls0.averagePower::0          733.598026                       # Core power per rank (mW)
system.mem_ctrls0.averagePower::1          732.863159                       # Core power per rank (mW)
system.mem_ctrls1.bytes_read::ruby.dir_cntrl1     20795968                       # Number of bytes read from this memory
system.mem_ctrls1.bytes_read::total          20795968                       # Number of bytes read from this memory
system.mem_ctrls1.bytes_written::ruby.dir_cntrl1     12935808                       # Number of bytes written to this memory
system.mem_ctrls1.bytes_written::total       12935808                       # Number of bytes written to this memory
system.mem_ctrls1.num_reads::ruby.dir_cntrl1       324937                       # Number of read requests responded to by this memory
system.mem_ctrls1.num_reads::total             324937                       # Number of read requests responded to by this memory
system.mem_ctrls1.num_writes::ruby.dir_cntrl1       202122                       # Number of write requests responded to by this memory
system.mem_ctrls1.num_writes::total            202122                       # Number of write requests responded to by this memory
system.mem_ctrls1.bw_read::ruby.dir_cntrl1    154840061                       # Total read bandwidth from this memory (bytes/s)
system.mem_ctrls1.bw_read::total            154840061                       # Total read bandwidth from this memory (bytes/s)
system.mem_ctrls1.bw_write::ruby.dir_cntrl1     96315848                       # Write bandwidth from this memory (bytes/s)
system.mem_ctrls1.bw_write::total            96315848                       # Write bandwidth from this memory (bytes/s)
system.mem_ctrls1.bw_total::ruby.dir_cntrl1    251155910                       # Total bandwidth to/from this memory (bytes/s)
system.mem_ctrls1.bw_total::total           251155910                       # Total bandwidth to/from this memory (bytes/s)
system.mem_ctrls1.readReqs                     324937                       # Number of read requests accepted
system.mem_ctrls1.writeReqs                    202122                       # Number of write requests accepted
system.mem_ctrls1.readBursts                   324937                       # Number of DRAM read bursts, including those serviced by the write queue
system.mem_ctrls1.writeBursts                  202122                       # Number of DRAM write bursts, including those merged in the write queue
system.mem_ctrls1.bytesReadDRAM              20794560                       # Total number of bytes read from DRAM
system.mem_ctrls1.bytesReadWrQ                   1408                       # Total number of bytes read from write queue
system.mem_ctrls1.bytesWritten               12935680                       # Total number of bytes written to DRAM
system.mem_ctrls1.bytesReadSys               20795968                       # Total read bytes from the system interface side
system.mem_ctrls1.bytesWrittenSys            12935808                       # Total written bytes from the system interface side
system.mem_ctrls1.servicedByWrQ                    22                       # Number of DRAM read bursts serviced by the write queue
system.mem_ctrls1.mergedWrBursts                    0                       # Number of DRAM write bursts merged with an existing one
system.mem_ctrls1.neitherReadNorWriteReqs            0                       # Number of requests that are neither read nor write
system.mem_ctrls1.perBankRdBursts::0            20059                       # Per bank write bursts
system.mem_ctrls1.perBankRdBursts::1            20709                       # Per bank write bursts
system.mem_ctrls1.perBankRdBursts::2            20243                       # Per bank write bursts
system.mem_ctrls1.perBankRdBursts::3            20674                       # Per bank write bursts
system.mem_ctrls1.perBankRdBursts::4            20370                       # Per bank write bursts
system.mem_ctrls1.perBankRdBursts::5            20531                       # Per bank write bursts
system.mem_ctrls1.perBankRdBursts::6            20423                       # Per bank write bursts
system.mem_ctrls1.perBankRdBursts::7            20503                       # Per bank write bursts
system.mem_ctrls1.perBankRdBursts::8            20193                       # Per bank write bursts
system.mem_ctrls1.perBankRdBursts::9            20387                       # Per bank write bursts
system.mem_ctrls1.perBankRdBursts::10           20150                       # Per bank write bursts
system.mem_ctrls1.perBankRdBursts::11           20570                       # Per bank write bursts
system.mem_ctrls1.perBankRdBursts::12           20013                       # Per bank write bursts
system.mem_ctrls1.perBankRdBursts::13           19885                       # Per bank write bursts
system.mem_ctrls1.perBankRdBursts::14           20071                       # Per bank write bursts
system.mem_ctrls1.perBankRdBursts::15           20134                       # Per bank write bursts
system.mem_ctrls1.perBankWrBursts::0            12685                       # Per bank write bursts
system.mem_ctrls1.perBankWrBursts::1            12677                       # Per bank write bursts
system.mem_ctrls1.perBankWrBursts::2            12586                       # Per bank write bursts
system.mem_ctrls1.perBankWrBursts::3            12789                       # Per bank write bursts
system.mem_ctrls1.perBankWrBursts::4            12628                       # Per bank write bursts
system.mem_ctrls1.perBankWrBursts::5            12750                       # Per bank write bursts
system.mem_ctrls1.perBankWrBursts::6            12630                       # Per bank write bursts
system.mem_ctrls1.perBankWrBursts::7            12829                       # Per bank write bursts
system.mem_ctrls1.perBankWrBursts::8            12548                       # Per bank write bursts
system.mem_ctrls1.perBankWrBursts::9            12763                       # Per bank write bursts
system.mem_ctrls1.perBankWrBursts::10           12554                       # Per bank write bursts
system.mem_ctrls1.perBankWrBursts::11           12492                       # Per bank write bursts
system.mem_ctrls1.perBankWrBursts::12           12463                       # Per bank write bursts
system.mem_ctrls1.perBankWrBursts::13           12463                       # Per bank write bursts
system.mem_ctrls1.perBankWrBursts::14           12705                       # Per bank write bursts
system.mem_ctrls1.perBankWrBursts::15           12558                       # Per bank write bursts
system.mem_ctrls1.numRdRetry                        0                       # Number of times read queue was full causing retry
system.mem_ctrls1.numWrRetry                      141                       # Number of times write queue was full causing retry
system.mem_ctrls1.totGap                 134305283500                       # Total gap between requests
system.mem_ctrls1.readPktSize::0                    0                       # Read request sizes (log2)
system.mem_ctrls1.readPktSize::1                    0                       # Read request sizes (log2)
system.mem_ctrls1.readPktSize::2                    0                       # Read request sizes (log2)
system.mem_ctrls1.readPktSize::3                    0                       # Read request sizes (log2)
system.mem_ctrls1.readPktSize::4                    0                       # Read request sizes (log2)
system.mem_ctrls1.readPktSize::5                    0                       # Read request sizes (log2)
system.mem_ctrls1.readPktSize::6               324937                       # Read request sizes (log2)
system.mem_ctrls1.writePktSize::0                   0                       # Write request sizes (log2)
system.mem_ctrls1.writePktSize::1                   0                       # Write request sizes (log2)
system.mem_ctrls1.writePktSize::2                   0                       # Write request sizes (log2)
system.mem_ctrls1.writePktSize::3                   0                       # Write request sizes (log2)
system.mem_ctrls1.writePktSize::4                   0                       # Write request sizes (log2)
system.mem_ctrls1.writePktSize::5                   0                       # Write request sizes (log2)
system.mem_ctrls1.writePktSize::6              202122                       # Write request sizes (log2)
system.mem_ctrls1.rdQLenPdf::0                 226828                       # What read queue length does an incoming req see
system.mem_ctrls1.rdQLenPdf::1                  40962                       # What read queue length does an incoming req see
system.mem_ctrls1.rdQLenPdf::2                  26556                       # What read queue length does an incoming req see
system.mem_ctrls1.rdQLenPdf::3                  13874                       # What read queue length does an incoming req see
system.mem_ctrls1.rdQLenPdf::4                   6698                       # What read queue length does an incoming req see
system.mem_ctrls1.rdQLenPdf::5                   4493                       # What read queue length does an incoming req see
system.mem_ctrls1.rdQLenPdf::6                   2816                       # What read queue length does an incoming req see
system.mem_ctrls1.rdQLenPdf::7                   1830                       # What read queue length does an incoming req see
system.mem_ctrls1.rdQLenPdf::8                    621                       # What read queue length does an incoming req see
system.mem_ctrls1.rdQLenPdf::9                    164                       # What read queue length does an incoming req see
system.mem_ctrls1.rdQLenPdf::10                    58                       # What read queue length does an incoming req see
system.mem_ctrls1.rdQLenPdf::11                    11                       # What read queue length does an incoming req see
system.mem_ctrls1.rdQLenPdf::12                     4                       # What read queue length does an incoming req see
system.mem_ctrls1.rdQLenPdf::13                     0                       # What read queue length does an incoming req see
system.mem_ctrls1.rdQLenPdf::14                     0                       # What read queue length does an incoming req see
system.mem_ctrls1.rdQLenPdf::15                     0                       # What read queue length does an incoming req see
system.mem_ctrls1.rdQLenPdf::16                     0                       # What read queue length does an incoming req see
system.mem_ctrls1.rdQLenPdf::17                     0                       # What read queue length does an incoming req see
system.mem_ctrls1.rdQLenPdf::18                     0                       # What read queue length does an incoming req see
system.mem_ctrls1.rdQLenPdf::19                     0                       # What read queue length does an incoming req see
system.mem_ctrls1.rdQLenPdf::20                     0                       # What read queue length does an incoming req see
system.mem_ctrls1.rdQLenPdf::21                     0                       # What read queue length does an incoming req see
system.mem_ctrls1.rdQLenPdf::22                     0                       # What read queue length does an incoming req see
system.mem_ctrls1.rdQLenPdf::23                     0                       # What read queue length does an incoming req see
system.mem_ctrls1.rdQLenPdf::24                     0                       # What read queue length does an incoming req see
system.mem_ctrls1.rdQLenPdf::25                     0                       # What read queue length does an incoming req see
system.mem_ctrls1.rdQLenPdf::26                     0                       # What read queue length does an incoming req see
system.mem_ctrls1.rdQLenPdf::27                     0                       # What read queue length does an incoming req see
system.mem_ctrls1.rdQLenPdf::28                     0                       # What read queue length does an incoming req see
system.mem_ctrls1.rdQLenPdf::29                     0                       # What read queue length does an incoming req see
system.mem_ctrls1.rdQLenPdf::30                     0                       # What read queue length does an incoming req see
system.mem_ctrls1.rdQLenPdf::31                     0                       # What read queue length does an incoming req see
system.mem_ctrls1.wrQLenPdf::0                  38472                       # What write queue length does an incoming req see
system.mem_ctrls1.wrQLenPdf::1                  39851                       # What write queue length does an incoming req see
system.mem_ctrls1.wrQLenPdf::2                  40036                       # What write queue length does an incoming req see
system.mem_ctrls1.wrQLenPdf::3                  40250                       # What write queue length does an incoming req see
system.mem_ctrls1.wrQLenPdf::4                  40703                       # What write queue length does an incoming req see
system.mem_ctrls1.wrQLenPdf::5                   1708                       # What write queue length does an incoming req see
system.mem_ctrls1.wrQLenPdf::6                    732                       # What write queue length does an incoming req see
system.mem_ctrls1.wrQLenPdf::7                    370                       # What write queue length does an incoming req see
system.mem_ctrls1.bytesPerActivate::samples       117703                       # Bytes accessed per row activation
system.mem_ctrls1.bytesPerActivate::mean   286.569144                       # Bytes accessed per row activation
system.mem_ctrls1.bytesPerActivate::gmean   216.989389                       # Bytes accessed per row activation
system.mem_ctrls1.bytesPerActivate::stdev   225.402777                       # Bytes accessed per row activation
system.mem_ctrls1.bytesPerActivate::0-127        23599     20.05%     20.05% # Bytes accessed per row activation
system.mem_ctrls1.bytesPerActivate::128-255        24229     20.58%     40.63% # Bytes accessed per row activation
system.mem_ctrls1.bytesPerActivate::256-383        51869     44.07%     84.70% # Bytes accessed per row activation
system.mem_ctrls1.bytesPerActivate::384-511         5353      4.55%     89.25% # Bytes accessed per row activation
system.mem_ctrls1.bytesPerActivate::512-639         3197      2.72%     91.97% # Bytes accessed per row activation
system.mem_ctrls1.bytesPerActivate::640-767         1581      1.34%     93.31% # Bytes accessed per row activation
system.mem_ctrls1.bytesPerActivate::768-895         1196      1.02%     94.33% # Bytes accessed per row activation
system.mem_ctrls1.bytesPerActivate::896-1023          902      0.77%     95.09% # Bytes accessed per row activation
system.mem_ctrls1.bytesPerActivate::1024-1151         5777      4.91%    100.00% # Bytes accessed per row activation
system.mem_ctrls1.bytesPerActivate::total       117703                       # Bytes accessed per row activation
system.mem_ctrls1.rdPerTurnAround::samples        38471                       # Reads before turning the bus around for writes
system.mem_ctrls1.rdPerTurnAround::mean      8.445608                       # Reads before turning the bus around for writes
system.mem_ctrls1.rdPerTurnAround::stdev    21.572179                       # Reads before turning the bus around for writes
system.mem_ctrls1.rdPerTurnAround::0-127        38421     99.87%     99.87% # Reads before turning the bus around for writes
system.mem_ctrls1.rdPerTurnAround::128-255           48      0.12%     99.99% # Reads before turning the bus around for writes
system.mem_ctrls1.rdPerTurnAround::1152-1279            1      0.00%    100.00% # Reads before turning the bus around for writes
system.mem_ctrls1.rdPerTurnAround::2816-2943            1      0.00%    100.00% # Reads before turning the bus around for writes
system.mem_ctrls1.rdPerTurnAround::total        38471                       # Reads before turning the bus around for writes
system.mem_ctrls1.wrPerTurnAround::samples        38471                       # Writes before turning the bus around for reads
system.mem_ctrls1.wrPerTurnAround::mean      5.253828                       # Writes before turning the bus around for reads
system.mem_ctrls1.wrPerTurnAround::gmean     5.200598                       # Writes before turning the bus around for reads
system.mem_ctrls1.wrPerTurnAround::stdev     0.897363                       # Writes before turning the bus around for reads
system.mem_ctrls1.wrPerTurnAround::4-5          34442     89.53%     89.53% # Writes before turning the bus around for reads
system.mem_ctrls1.wrPerTurnAround::6-7           2378      6.18%     95.71% # Writes before turning the bus around for reads
system.mem_ctrls1.wrPerTurnAround::8-9           1219      3.17%     98.88% # Writes before turning the bus around for reads
system.mem_ctrls1.wrPerTurnAround::10-11          343      0.89%     99.77% # Writes before turning the bus around for reads
system.mem_ctrls1.wrPerTurnAround::12-13           75      0.19%     99.96% # Writes before turning the bus around for reads
system.mem_ctrls1.wrPerTurnAround::14-15           14      0.04%    100.00% # Writes before turning the bus around for reads
system.mem_ctrls1.wrPerTurnAround::total        38471                       # Writes before turning the bus around for reads
system.mem_ctrls1.totQLat                  5202536106                       # Total ticks spent queuing
system.mem_ctrls1.totMemAccLat            11294692356                       # Total ticks spent from burst creation until serviced by the DRAM
system.mem_ctrls1.totBusLat                1624575000                       # Total ticks spent in databus transfers
system.mem_ctrls1.avgQLat                    16011.99                       # Average queueing delay per DRAM burst
system.mem_ctrls1.avgBusLat                   5000.00                       # Average bus latency per DRAM burst
system.mem_ctrls1.avgMemAccLat               34761.99                       # Average memory access latency per DRAM burst
system.mem_ctrls1.avgRdBW                      154.83                       # Average DRAM read bandwidth in MiByte/s
system.mem_ctrls1.avgWrBW                       96.31                       # Average achieved write bandwidth in MiByte/s
system.mem_ctrls1.avgRdBWSys                   154.84                       # Average system read bandwidth in MiByte/s
system.mem_ctrls1.avgWrBWSys                    96.32                       # Average system write bandwidth in MiByte/s
system.mem_ctrls1.peakBW                     12800.00                       # Theoretical peak bandwidth in MiByte/s
system.mem_ctrls1.busUtil                        1.96                       # Data bus utilization in percentage
system.mem_ctrls1.busUtilRead                    1.21                       # Data bus utilization in percentage for reads
system.mem_ctrls1.busUtilWrite                   0.75                       # Data bus utilization in percentage for writes
system.mem_ctrls1.avgRdQLen                      1.06                       # Average read queue length when enqueuing
system.mem_ctrls1.avgWrQLen                      2.98                       # Average write queue length when enqueuing
system.mem_ctrls1.readRowHits                  262041                       # Number of row buffer hits during reads
system.mem_ctrls1.writeRowHits                 147289                       # Number of row buffer hits during writes
system.mem_ctrls1.readRowHitRate                80.65                       # Row buffer hit rate for reads
system.mem_ctrls1.writeRowHitRate               72.87                       # Row buffer hit rate for writes
system.mem_ctrls1.avgGap                    254820.21                       # Average gap between requests
system.mem_ctrls1.pageHitRate                   77.67                       # Row buffer hit rate, read and write combined
system.mem_ctrls1.memoryStateTime::IDLE   28574270250                       # Time in different power states
system.mem_ctrls1.memoryStateTime::REF     4484740000                       # Time in different power states
system.mem_ctrls1.memoryStateTime::PRE_PDN            0                       # Time in different power states
system.mem_ctrls1.memoryStateTime::ACT   101246289750                       # Time in different power states
system.mem_ctrls1.memoryStateTime::ACT_PDN            0                       # Time in different power states
system.mem_ctrls1.actEnergy::0              451324440                       # Energy for activate commands per rank (pJ)
system.mem_ctrls1.actEnergy::1              438510240                       # Energy for activate commands per rank (pJ)
system.mem_ctrls1.preEnergy::0              246258375                       # Energy for precharge commands per rank (pJ)
system.mem_ctrls1.preEnergy::1              239266500                       # Energy for precharge commands per rank (pJ)
system.mem_ctrls1.readEnergy::0            1275385800                       # Energy for read commands per rank (pJ)
system.mem_ctrls1.readEnergy::1            1258927800                       # Energy for read commands per rank (pJ)
system.mem_ctrls1.writeEnergy::0            658199520                       # Energy for write commands per rank (pJ)
system.mem_ctrls1.writeEnergy::1            651538080                       # Energy for write commands per rank (pJ)
system.mem_ctrls1.refreshEnergy::0         8772151440                       # Energy for refresh commands per rank (pJ)
system.mem_ctrls1.refreshEnergy::1         8772151440                       # Energy for refresh commands per rank (pJ)
system.mem_ctrls1.actBackEnergy::0        50979162960                       # Energy for active background per rank (pJ)
system.mem_ctrls1.actBackEnergy::1        49991473800                       # Energy for active background per rank (pJ)
system.mem_ctrls1.preBackEnergy::0        35864607750                       # Energy for precharge background per rank (pJ)
system.mem_ctrls1.preBackEnergy::1        36731001750                       # Energy for precharge background per rank (pJ)
system.mem_ctrls1.totalEnergy::0          98247090285                       # Total energy per rank (pJ)
system.mem_ctrls1.totalEnergy::1          98082869610                       # Total energy per rank (pJ)
system.mem_ctrls1.averagePower::0          731.520650                       # Core power per rank (mW)
system.mem_ctrls1.averagePower::1          730.297908                       # Core power per rank (mW)
system.mem_ctrls2.bytes_read::ruby.dir_cntrl2     20794624                       # Number of bytes read from this memory
system.mem_ctrls2.bytes_read::total          20794624                       # Number of bytes read from this memory
system.mem_ctrls2.bytes_written::ruby.dir_cntrl2     12936704                       # Number of bytes written to this memory
system.mem_ctrls2.bytes_written::total       12936704                       # Number of bytes written to this memory
system.mem_ctrls2.num_reads::ruby.dir_cntrl2       324916                       # Number of read requests responded to by this memory
system.mem_ctrls2.num_reads::total             324916                       # Number of read requests responded to by this memory
system.mem_ctrls2.num_writes::ruby.dir_cntrl2       202136                       # Number of write requests responded to by this memory
system.mem_ctrls2.num_writes::total            202136                       # Number of write requests responded to by this memory
system.mem_ctrls2.bw_read::ruby.dir_cntrl2    154830054                       # Total read bandwidth from this memory (bytes/s)
system.mem_ctrls2.bw_read::total            154830054                       # Total read bandwidth from this memory (bytes/s)
system.mem_ctrls2.bw_write::ruby.dir_cntrl2     96322520                       # Write bandwidth from this memory (bytes/s)
system.mem_ctrls2.bw_write::total            96322520                       # Write bandwidth from this memory (bytes/s)
system.mem_ctrls2.bw_total::ruby.dir_cntrl2    251152574                       # Total bandwidth to/from this memory (bytes/s)
system.mem_ctrls2.bw_total::total           251152574                       # Total bandwidth to/from this memory (bytes/s)
system.mem_ctrls2.readReqs                     324916                       # Number of read requests accepted
system.mem_ctrls2.writeReqs                    202136                       # Number of write requests accepted
system.mem_ctrls2.readBursts                   324916                       # Number of DRAM read bursts, including those serviced by the write queue
system.mem_ctrls2.writeBursts                  202136                       # Number of DRAM write bursts, including those merged in the write queue
system.mem_ctrls2.bytesReadDRAM              20793600                       # Total number of bytes read from DRAM
system.mem_ctrls2.bytesReadWrQ                   1024                       # Total number of bytes read from write queue
system.mem_ctrls2.bytesWritten               12936512                       # Total number of bytes written to DRAM
system.mem_ctrls2.bytesReadSys               20794624                       # Total read bytes from the system interface side
system.mem_ctrls2.bytesWrittenSys            12936704                       # Total written bytes from the system interface side
system.mem_ctrls2.servicedByWrQ                    16                       # Number of DRAM read bursts serviced by the write queue
system.mem_ctrls2.mergedWrBursts                    0                       # Number of DRAM write bursts merged with an existing one
system.mem_ctrls2.neitherReadNorWriteReqs            0                       # Number of requests that are neither read nor write
system.mem_ctrls2.perBankRdBursts::0            20056                       # Per bank write bursts
system.mem_ctrls2.perBankRdBursts::1            20692                       # Per bank write bursts
system.mem_ctrls2.perBankRdBursts::2            20256                       # Per bank write bursts
system.mem_ctrls2.perBankRdBursts::3            20719                       # Per bank write bursts
system.mem_ctrls2.perBankRdBursts::4            20373                       # Per bank write bursts
system.mem_ctrls2.perBankRdBursts::5            20513                       # Per bank write bursts
system.mem_ctrls2.perBankRdBursts::6            20397                       # Per bank write bursts
system.mem_ctrls2.perBankRdBursts::7            20481                       # Per bank write bursts
system.mem_ctrls2.perBankRdBursts::8            20164                       # Per bank write bursts
system.mem_ctrls2.perBankRdBursts::9            20395                       # Per bank write bursts
system.mem_ctrls2.perBankRdBursts::10           20159                       # Per bank write bursts
system.mem_ctrls2.perBankRdBursts::11           20587                       # Per bank write bursts
system.mem_ctrls2.perBankRdBursts::12           20029                       # Per bank write bursts
system.mem_ctrls2.perBankRdBursts::13           19845                       # Per bank write bursts
system.mem_ctrls2.perBankRdBursts::14           20062                       # Per bank write bursts
system.mem_ctrls2.perBankRdBursts::15           20172                       # Per bank write bursts
system.mem_ctrls2.perBankWrBursts::0            12679                       # Per bank write bursts
system.mem_ctrls2.perBankWrBursts::1            12677                       # Per bank write bursts
system.mem_ctrls2.perBankWrBursts::2            12583                       # Per bank write bursts
system.mem_ctrls2.perBankWrBursts::3            12796                       # Per bank write bursts
system.mem_ctrls2.perBankWrBursts::4            12628                       # Per bank write bursts
system.mem_ctrls2.perBankWrBursts::5            12734                       # Per bank write bursts
system.mem_ctrls2.perBankWrBursts::6            12638                       # Per bank write bursts
system.mem_ctrls2.perBankWrBursts::7            12831                       # Per bank write bursts
system.mem_ctrls2.perBankWrBursts::8            12532                       # Per bank write bursts
system.mem_ctrls2.perBankWrBursts::9            12769                       # Per bank write bursts
system.mem_ctrls2.perBankWrBursts::10           12550                       # Per bank write bursts
system.mem_ctrls2.perBankWrBursts::11           12508                       # Per bank write bursts
system.mem_ctrls2.perBankWrBursts::12           12469                       # Per bank write bursts
system.mem_ctrls2.perBankWrBursts::13           12457                       # Per bank write bursts
system.mem_ctrls2.perBankWrBursts::14           12710                       # Per bank write bursts
system.mem_ctrls2.perBankWrBursts::15           12572                       # Per bank write bursts
system.mem_ctrls2.numRdRetry                        0                       # Number of times read queue was full causing retry
system.mem_ctrls2.numWrRetry                      134                       # Number of times write queue was full causing retry
system.mem_ctrls2.totGap                 134306017500                       # Total gap between requests
system.mem_ctrls2.readPktSize::0                    0                       # Read request sizes (log2)
system.mem_ctrls2.readPktSize::1                    0                       # Read request sizes (log2)
system.mem_ctrls2.readPktSize::2                    0                       # Read request sizes (log2)
system.mem_ctrls2.readPktSize::3                    0                       # Read request sizes (log2)
system.mem_ctrls2.readPktSize::4                    0                       # Read request sizes (log2)
system.mem_ctrls2.readPktSize::5                    0                       # Read request sizes (log2)
system.mem_ctrls2.readPktSize::6               324916                       # Read request sizes (log2)
system.mem_ctrls2.writePktSize::0                   0                       # Write request sizes (log2)
system.mem_ctrls2.writePktSize::1                   0                       # Write request sizes (log2)
system.mem_ctrls2.writePktSize::2                   0                       # Write request sizes (log2)
system.mem_ctrls2.writePktSize::3                   0                       # Write request sizes (log2)
system.mem_ctrls2.writePktSize::4                   0                       # Write request sizes (log2)
system.mem_ctrls2.writePktSize::5                   0                       # Write request sizes (log2)
system.mem_ctrls2.writePktSize::6              202136                       # Write request sizes (log2)
system.mem_ctrls2.rdQLenPdf::0                 226897                       # What read queue length does an incoming req see
system.mem_ctrls2.rdQLenPdf::1                  44913                       # What read queue length does an incoming req see
system.mem_ctrls2.rdQLenPdf::2                  24642                       # What read queue length does an incoming req see
system.mem_ctrls2.rdQLenPdf::3                  12216                       # What read queue length does an incoming req see
system.mem_ctrls2.rdQLenPdf::4                   6824                       # What read queue length does an incoming req see
system.mem_ctrls2.rdQLenPdf::5                   4181                       # What read queue length does an incoming req see
system.mem_ctrls2.rdQLenPdf::6                   2882                       # What read queue length does an incoming req see
system.mem_ctrls2.rdQLenPdf::7                   1710                       # What read queue length does an incoming req see
system.mem_ctrls2.rdQLenPdf::8                    476                       # What read queue length does an incoming req see
system.mem_ctrls2.rdQLenPdf::9                    113                       # What read queue length does an incoming req see
system.mem_ctrls2.rdQLenPdf::10                    33                       # What read queue length does an incoming req see
system.mem_ctrls2.rdQLenPdf::11                     8                       # What read queue length does an incoming req see
system.mem_ctrls2.rdQLenPdf::12                     4                       # What read queue length does an incoming req see
system.mem_ctrls2.rdQLenPdf::13                     1                       # What read queue length does an incoming req see
system.mem_ctrls2.rdQLenPdf::14                     0                       # What read queue length does an incoming req see
system.mem_ctrls2.rdQLenPdf::15                     0                       # What read queue length does an incoming req see
system.mem_ctrls2.rdQLenPdf::16                     0                       # What read queue length does an incoming req see
system.mem_ctrls2.rdQLenPdf::17                     0                       # What read queue length does an incoming req see
system.mem_ctrls2.rdQLenPdf::18                     0                       # What read queue length does an incoming req see
system.mem_ctrls2.rdQLenPdf::19                     0                       # What read queue length does an incoming req see
system.mem_ctrls2.rdQLenPdf::20                     0                       # What read queue length does an incoming req see
system.mem_ctrls2.rdQLenPdf::21                     0                       # What read queue length does an incoming req see
system.mem_ctrls2.rdQLenPdf::22                     0                       # What read queue length does an incoming req see
system.mem_ctrls2.rdQLenPdf::23                     0                       # What read queue length does an incoming req see
system.mem_ctrls2.rdQLenPdf::24                     0                       # What read queue length does an incoming req see
system.mem_ctrls2.rdQLenPdf::25                     0                       # What read queue length does an incoming req see
system.mem_ctrls2.rdQLenPdf::26                     0                       # What read queue length does an incoming req see
system.mem_ctrls2.rdQLenPdf::27                     0                       # What read queue length does an incoming req see
system.mem_ctrls2.rdQLenPdf::28                     0                       # What read queue length does an incoming req see
system.mem_ctrls2.rdQLenPdf::29                     0                       # What read queue length does an incoming req see
system.mem_ctrls2.rdQLenPdf::30                     0                       # What read queue length does an incoming req see
system.mem_ctrls2.rdQLenPdf::31                     0                       # What read queue length does an incoming req see
system.mem_ctrls2.wrQLenPdf::0                  38574                       # What write queue length does an incoming req see
system.mem_ctrls2.wrQLenPdf::1                  39980                       # What write queue length does an incoming req see
system.mem_ctrls2.wrQLenPdf::2                  40137                       # What write queue length does an incoming req see
system.mem_ctrls2.wrQLenPdf::3                  40204                       # What write queue length does an incoming req see
system.mem_ctrls2.wrQLenPdf::4                  40475                       # What write queue length does an incoming req see
system.mem_ctrls2.wrQLenPdf::5                   1671                       # What write queue length does an incoming req see
system.mem_ctrls2.wrQLenPdf::6                    737                       # What write queue length does an incoming req see
system.mem_ctrls2.wrQLenPdf::7                    358                       # What write queue length does an incoming req see
system.mem_ctrls2.bytesPerActivate::samples       117792                       # Bytes accessed per row activation
system.mem_ctrls2.bytesPerActivate::mean   286.350992                       # Bytes accessed per row activation
system.mem_ctrls2.bytesPerActivate::gmean   216.947588                       # Bytes accessed per row activation
system.mem_ctrls2.bytesPerActivate::stdev   224.594555                       # Bytes accessed per row activation
system.mem_ctrls2.bytesPerActivate::0-127        23967     20.35%     20.35% # Bytes accessed per row activation
system.mem_ctrls2.bytesPerActivate::128-255        23218     19.71%     40.06% # Bytes accessed per row activation
system.mem_ctrls2.bytesPerActivate::256-383        52727     44.76%     84.82% # Bytes accessed per row activation
system.mem_ctrls2.bytesPerActivate::384-511         5455      4.63%     89.45% # Bytes accessed per row activation
system.mem_ctrls2.bytesPerActivate::512-639         3109      2.64%     92.09% # Bytes accessed per row activation
system.mem_ctrls2.bytesPerActivate::640-767         1499      1.27%     93.36% # Bytes accessed per row activation
system.mem_ctrls2.bytesPerActivate::768-895         1175      1.00%     94.36% # Bytes accessed per row activation
system.mem_ctrls2.bytesPerActivate::896-1023          860      0.73%     95.09% # Bytes accessed per row activation
system.mem_ctrls2.bytesPerActivate::1024-1151         5782      4.91%    100.00% # Bytes accessed per row activation
system.mem_ctrls2.bytesPerActivate::total       117792                       # Bytes accessed per row activation
system.mem_ctrls2.rdPerTurnAround::samples        38573                       # Reads before turning the bus around for writes
system.mem_ctrls2.rdPerTurnAround::mean      8.422809                       # Reads before turning the bus around for writes
system.mem_ctrls2.rdPerTurnAround::stdev    21.545944                       # Reads before turning the bus around for writes
system.mem_ctrls2.rdPerTurnAround::0-127        38515     99.85%     99.85% # Reads before turning the bus around for writes
system.mem_ctrls2.rdPerTurnAround::128-255           56      0.15%     99.99% # Reads before turning the bus around for writes
system.mem_ctrls2.rdPerTurnAround::1152-1279            1      0.00%    100.00% # Reads before turning the bus around for writes
system.mem_ctrls2.rdPerTurnAround::2816-2943            1      0.00%    100.00% # Reads before turning the bus around for writes
system.mem_ctrls2.rdPerTurnAround::total        38573                       # Reads before turning the bus around for writes
system.mem_ctrls2.wrPerTurnAround::samples        38573                       # Writes before turning the bus around for reads
system.mem_ctrls2.wrPerTurnAround::mean      5.240272                       # Writes before turning the bus around for reads
system.mem_ctrls2.wrPerTurnAround::gmean     5.191521                       # Writes before turning the bus around for reads
system.mem_ctrls2.wrPerTurnAround::stdev     0.851294                       # Writes before turning the bus around for reads
system.mem_ctrls2.wrPerTurnAround::4-5          34632     89.78%     89.78% # Writes before turning the bus around for reads
system.mem_ctrls2.wrPerTurnAround::6-7           2413      6.26%     96.04% # Writes before turning the bus around for reads
system.mem_ctrls2.wrPerTurnAround::8-9           1194      3.10%     99.13% # Writes before turning the bus around for reads
system.mem_ctrls2.wrPerTurnAround::10-11          260      0.67%     99.81% # Writes before turning the bus around for reads
system.mem_ctrls2.wrPerTurnAround::12-13           65      0.17%     99.98% # Writes before turning the bus around for reads
system.mem_ctrls2.wrPerTurnAround::14-15            9      0.02%    100.00% # Writes before turning the bus around for reads
system.mem_ctrls2.wrPerTurnAround::total        38573                       # Writes before turning the bus around for reads
system.mem_ctrls2.totQLat                  5127568612                       # Total ticks spent queuing
system.mem_ctrls2.totMemAccLat            11219443612                       # Total ticks spent from burst creation until serviced by the DRAM
system.mem_ctrls2.totBusLat                1624500000                       # Total ticks spent in databus transfers
system.mem_ctrls2.avgQLat                    15781.99                       # Average queueing delay per DRAM burst
system.mem_ctrls2.avgBusLat                   5000.00                       # Average bus latency per DRAM burst
system.mem_ctrls2.avgMemAccLat               34531.99                       # Average memory access latency per DRAM burst
system.mem_ctrls2.avgRdBW                      154.82                       # Average DRAM read bandwidth in MiByte/s
system.mem_ctrls2.avgWrBW                       96.32                       # Average achieved write bandwidth in MiByte/s
system.mem_ctrls2.avgRdBWSys                   154.83                       # Average system read bandwidth in MiByte/s
system.mem_ctrls2.avgWrBWSys                    96.32                       # Average system write bandwidth in MiByte/s
system.mem_ctrls2.peakBW                     12800.00                       # Theoretical peak bandwidth in MiByte/s
system.mem_ctrls2.busUtil                        1.96                       # Data bus utilization in percentage
system.mem_ctrls2.busUtilRead                    1.21                       # Data bus utilization in percentage for reads
system.mem_ctrls2.busUtilWrite                   0.75                       # Data bus utilization in percentage for writes
system.mem_ctrls2.avgRdQLen                      1.06                       # Average read queue length when enqueuing
system.mem_ctrls2.avgWrQLen                      2.95                       # Average write queue length when enqueuing
system.mem_ctrls2.readRowHits                  261737                       # Number of row buffer hits during reads
system.mem_ctrls2.writeRowHits                 147501                       # Number of row buffer hits during writes
system.mem_ctrls2.readRowHitRate                80.56                       # Row buffer hit rate for reads
system.mem_ctrls2.writeRowHitRate               72.97                       # Row buffer hit rate for writes
system.mem_ctrls2.avgGap                    254824.98                       # Average gap between requests
system.mem_ctrls2.pageHitRate                   77.65                       # Row buffer hit rate, read and write combined
system.mem_ctrls2.memoryStateTime::IDLE   28426692500                       # Time in different power states
system.mem_ctrls2.memoryStateTime::REF     4484740000                       # Time in different power states
system.mem_ctrls2.memoryStateTime::PRE_PDN            0                       # Time in different power states
system.mem_ctrls2.memoryStateTime::ACT   101393980000                       # Time in different power states
system.mem_ctrls2.memoryStateTime::ACT_PDN            0                       # Time in different power states
system.mem_ctrls2.actEnergy::0              452473560                       # Energy for activate commands per rank (pJ)
system.mem_ctrls2.actEnergy::1              438033960                       # Energy for activate commands per rank (pJ)
system.mem_ctrls2.preEnergy::0              246885375                       # Energy for precharge commands per rank (pJ)
system.mem_ctrls2.preEnergy::1              239006625                       # Energy for precharge commands per rank (pJ)
system.mem_ctrls2.readEnergy::0            1275183000                       # Energy for read commands per rank (pJ)
system.mem_ctrls2.readEnergy::1            1259005800                       # Energy for read commands per rank (pJ)
system.mem_ctrls2.writeEnergy::0            658147680                       # Energy for write commands per rank (pJ)
system.mem_ctrls2.writeEnergy::1            651674160                       # Energy for write commands per rank (pJ)
system.mem_ctrls2.refreshEnergy::0         8772151440                       # Energy for refresh commands per rank (pJ)
system.mem_ctrls2.refreshEnergy::1         8772151440                       # Energy for refresh commands per rank (pJ)
system.mem_ctrls2.actBackEnergy::0        50731788375                       # Energy for active background per rank (pJ)
system.mem_ctrls2.actBackEnergy::1        49795754040                       # Energy for active background per rank (pJ)
system.mem_ctrls2.preBackEnergy::0        36081603000                       # Energy for precharge background per rank (pJ)
system.mem_ctrls2.preBackEnergy::1        36902685750                       # Energy for precharge background per rank (pJ)
system.mem_ctrls2.totalEnergy::0          98218232430                       # Total energy per rank (pJ)
system.mem_ctrls2.totalEnergy::1          98058311775                       # Total energy per rank (pJ)
system.mem_ctrls2.averagePower::0          731.305782                       # Core power per rank (mW)
system.mem_ctrls2.averagePower::1          730.115057                       # Core power per rank (mW)
system.mem_ctrls3.bytes_read::ruby.dir_cntrl3     20773440                       # Number of bytes read from this memory
system.mem_ctrls3.bytes_read::total          20773440                       # Number of bytes read from this memory
system.mem_ctrls3.bytes_written::ruby.dir_cntrl3     12935040                       # Number of bytes written to this memory
system.mem_ctrls3.bytes_written::total       12935040                       # Number of bytes written to this memory
system.mem_ctrls3.num_reads::ruby.dir_cntrl3       324585                       # Number of read requests responded to by this memory
system.mem_ctrls3.num_reads::total             324585                       # Number of read requests responded to by this memory
system.mem_ctrls3.num_writes::ruby.dir_cntrl3       202110                       # Number of write requests responded to by this memory
system.mem_ctrls3.num_writes::total            202110                       # Number of write requests responded to by this memory
system.mem_ctrls3.bw_read::ruby.dir_cntrl3    154672325                       # Total read bandwidth from this memory (bytes/s)
system.mem_ctrls3.bw_read::total            154672325                       # Total read bandwidth from this memory (bytes/s)
system.mem_ctrls3.bw_write::ruby.dir_cntrl3     96310130                       # Write bandwidth from this memory (bytes/s)
system.mem_ctrls3.bw_write::total            96310130                       # Write bandwidth from this memory (bytes/s)
system.mem_ctrls3.bw_total::ruby.dir_cntrl3    250982455                       # Total bandwidth to/from this memory (bytes/s)
system.mem_ctrls3.bw_total::total           250982455                       # Total bandwidth to/from this memory (bytes/s)
system.mem_ctrls3.readReqs                     324585                       # Number of read requests accepted
system.mem_ctrls3.writeReqs                    202110                       # Number of write requests accepted
system.mem_ctrls3.readBursts                   324585                       # Number of DRAM read bursts, including those serviced by the write queue
system.mem_ctrls3.writeBursts                  202110                       # Number of DRAM write bursts, including those merged in the write queue
system.mem_ctrls3.bytesReadDRAM              20772608                       # Total number of bytes read from DRAM
system.mem_ctrls3.bytesReadWrQ                    832                       # Total number of bytes read from write queue
system.mem_ctrls3.bytesWritten               12934912                       # Total number of bytes written to DRAM
system.mem_ctrls3.bytesReadSys               20773440                       # Total read bytes from the system interface side
system.mem_ctrls3.bytesWrittenSys            12935040                       # Total written bytes from the system interface side
system.mem_ctrls3.servicedByWrQ                    13                       # Number of DRAM read bursts serviced by the write queue
system.mem_ctrls3.mergedWrBursts                    0                       # Number of DRAM write bursts merged with an existing one
system.mem_ctrls3.neitherReadNorWriteReqs            0                       # Number of requests that are neither read nor write
system.mem_ctrls3.perBankRdBursts::0            20054                       # Per bank write bursts
system.mem_ctrls3.perBankRdBursts::1            20667                       # Per bank write bursts
system.mem_ctrls3.perBankRdBursts::2            20168                       # Per bank write bursts
system.mem_ctrls3.perBankRdBursts::3            20693                       # Per bank write bursts
system.mem_ctrls3.perBankRdBursts::4            20303                       # Per bank write bursts
system.mem_ctrls3.perBankRdBursts::5            20504                       # Per bank write bursts
system.mem_ctrls3.perBankRdBursts::6            20404                       # Per bank write bursts
system.mem_ctrls3.perBankRdBursts::7            20463                       # Per bank write bursts
system.mem_ctrls3.perBankRdBursts::8            20156                       # Per bank write bursts
system.mem_ctrls3.perBankRdBursts::9            20382                       # Per bank write bursts
system.mem_ctrls3.perBankRdBursts::10           20198                       # Per bank write bursts
system.mem_ctrls3.perBankRdBursts::11           20541                       # Per bank write bursts
system.mem_ctrls3.perBankRdBursts::12           19972                       # Per bank write bursts
system.mem_ctrls3.perBankRdBursts::13           19840                       # Per bank write bursts
system.mem_ctrls3.perBankRdBursts::14           20086                       # Per bank write bursts
system.mem_ctrls3.perBankRdBursts::15           20141                       # Per bank write bursts
system.mem_ctrls3.perBankWrBursts::0            12685                       # Per bank write bursts
system.mem_ctrls3.perBankWrBursts::1            12667                       # Per bank write bursts
system.mem_ctrls3.perBankWrBursts::2            12587                       # Per bank write bursts
system.mem_ctrls3.perBankWrBursts::3            12787                       # Per bank write bursts
system.mem_ctrls3.perBankWrBursts::4            12627                       # Per bank write bursts
system.mem_ctrls3.perBankWrBursts::5            12737                       # Per bank write bursts
system.mem_ctrls3.perBankWrBursts::6            12634                       # Per bank write bursts
system.mem_ctrls3.perBankWrBursts::7            12823                       # Per bank write bursts
system.mem_ctrls3.perBankWrBursts::8            12529                       # Per bank write bursts
system.mem_ctrls3.perBankWrBursts::9            12773                       # Per bank write bursts
system.mem_ctrls3.perBankWrBursts::10           12550                       # Per bank write bursts
system.mem_ctrls3.perBankWrBursts::11           12513                       # Per bank write bursts
system.mem_ctrls3.perBankWrBursts::12           12466                       # Per bank write bursts
system.mem_ctrls3.perBankWrBursts::13           12462                       # Per bank write bursts
system.mem_ctrls3.perBankWrBursts::14           12715                       # Per bank write bursts
system.mem_ctrls3.perBankWrBursts::15           12553                       # Per bank write bursts
system.mem_ctrls3.numRdRetry                        0                       # Number of times read queue was full causing retry
system.mem_ctrls3.numWrRetry                      131                       # Number of times write queue was full causing retry
system.mem_ctrls3.totGap                 134305287000                       # Total gap between requests
system.mem_ctrls3.readPktSize::0                    0                       # Read request sizes (log2)
system.mem_ctrls3.readPktSize::1                    0                       # Read request sizes (log2)
system.mem_ctrls3.readPktSize::2                    0                       # Read request sizes (log2)
system.mem_ctrls3.readPktSize::3                    0                       # Read request sizes (log2)
system.mem_ctrls3.readPktSize::4                    0                       # Read request sizes (log2)
system.mem_ctrls3.readPktSize::5                    0                       # Read request sizes (log2)
system.mem_ctrls3.readPktSize::6               324585                       # Read request sizes (log2)
system.mem_ctrls3.writePktSize::0                   0                       # Write request sizes (log2)
system.mem_ctrls3.writePktSize::1                   0                       # Write request sizes (log2)
system.mem_ctrls3.writePktSize::2                   0                       # Write request sizes (log2)
system.mem_ctrls3.writePktSize::3                   0                       # Write request sizes (log2)
system.mem_ctrls3.writePktSize::4                   0                       # Write request sizes (log2)
system.mem_ctrls3.writePktSize::5                   0                       # Write request sizes (log2)
system.mem_ctrls3.writePktSize::6              202110                       # Write request sizes (log2)
system.mem_ctrls3.rdQLenPdf::0                 226112                       # What read queue length does an incoming req see
system.mem_ctrls3.rdQLenPdf::1                  44181                       # What read queue length does an incoming req see
system.mem_ctrls3.rdQLenPdf::2                  26235                       # What read queue length does an incoming req see
system.mem_ctrls3.rdQLenPdf::3                  12364                       # What read queue length does an incoming req see
system.mem_ctrls3.rdQLenPdf::4                   6601                       # What read queue length does an incoming req see
system.mem_ctrls3.rdQLenPdf::5                   4117                       # What read queue length does an incoming req see
system.mem_ctrls3.rdQLenPdf::6                   2839                       # What read queue length does an incoming req see
system.mem_ctrls3.rdQLenPdf::7                   1582                       # What read queue length does an incoming req see
system.mem_ctrls3.rdQLenPdf::8                    404                       # What read queue length does an incoming req see
system.mem_ctrls3.rdQLenPdf::9                    100                       # What read queue length does an incoming req see
system.mem_ctrls3.rdQLenPdf::10                    26                       # What read queue length does an incoming req see
system.mem_ctrls3.rdQLenPdf::11                     9                       # What read queue length does an incoming req see
system.mem_ctrls3.rdQLenPdf::12                     2                       # What read queue length does an incoming req see
system.mem_ctrls3.rdQLenPdf::13                     0                       # What read queue length does an incoming req see
system.mem_ctrls3.rdQLenPdf::14                     0                       # What read queue length does an incoming req see
system.mem_ctrls3.rdQLenPdf::15                     0                       # What read queue length does an incoming req see
system.mem_ctrls3.rdQLenPdf::16                     0                       # What read queue length does an incoming req see
system.mem_ctrls3.rdQLenPdf::17                     0                       # What read queue length does an incoming req see
system.mem_ctrls3.rdQLenPdf::18                     0                       # What read queue length does an incoming req see
system.mem_ctrls3.rdQLenPdf::19                     0                       # What read queue length does an incoming req see
system.mem_ctrls3.rdQLenPdf::20                     0                       # What read queue length does an incoming req see
[...]
system.ruby.L2Cache_Controller.S_I.Ack::total           16                      
system.ruby.L2Cache_Controller.S_I.Ack_all |           1      3.12%      3.12% |           2      6.25%      9.38% |           2      6.25%     15.62% |           2      6.25%     21.88% |           1      3.12%     25.00% |           2      6.25%     31.25% |           3      9.38%     40.62% |           1      3.12%     43.75% |           1      3.12%     46.88% |           2      6.25%     53.12% |           1      3.12%     56.25% |           1      3.12%     59.38% |           2      6.25%     65.62% |           1      3.12%     68.75% |           2      6.25%     75.00% |           1      3.12%     78.12% |           1      3.12%     81.25% |           1      3.12%     84.38% |           2      6.25%     90.62% |           0      0.00%     90.62% |           1      3.12%     93.75% |           0      0.00%     93.75% |           0      0.00%     93.75% |           0      0.00%     93.75% |           0      0.00%     93.75% |           1      3.12%     96.88% |           0      0.00%     96.88% |           0      0.00%     96.88% |           0      0.00%     96.88% |           0      0.00%     96.88% |           0      0.00%     96.88% |           1      3.12%    100.00%
system.ruby.L2Cache_Controller.S_I.Ack_all::total           32                      
system.ruby.L2Cache_Controller.ISS.Mem_Data |       25329      5.03%      5.03% |       15477      3.07%      8.10% |       15515      3.08%     11.18% |       15462      3.07%     14.25% |       15435      3.06%     17.31% |       15417      3.06%     20.37% |       15417      3.06%     23.43% |       15414      3.06%     26.49% |       15446      3.07%     29.56% |       15461      3.07%     32.63% |       15491      3.08%     35.70% |       15411      3.06%     38.76% |       15423      3.06%     41.82% |       15432      3.06%     44.89% |       15441      3.07%     47.95% |       15402      3.06%     51.01% |       15414      3.06%     54.07% |       15407      3.06%     57.13% |       15435      3.06%     60.19% |       15414      3.06%     63.25% |       15438      3.06%     66.32% |       15451      3.07%     69.38% |       15448      3.07%     72.45% |       15425      3.06%     75.51% |       15438      3.06%     78.58% |       15438      3.06%     81.64% |       15412      3.06%     84.70% |       15399      3.06%     87.76% |       15439      3.06%     90.82% |       15400      3.06%     93.88% |       15401      3.06%     96.94% |       15439      3.06%    100.00%
system.ruby.L2Cache_Controller.ISS.Mem_Data::total       503771                      
system.ruby.L2Cache_Controller.IS.Mem_Data |         507      3.20%      3.20% |         456      2.88%      6.08% |         443      2.80%      8.88% |         452      2.86%     11.74% |         452      2.86%     14.59% |         432      2.73%     17.32% |         473      2.99%     20.31% |         493      3.11%     23.42% |         509      3.22%     26.64% |         451      2.85%     29.49% |         491      3.10%     32.59% |         501      3.16%     35.75% |         556      3.51%     39.27% |         529      3.34%     42.61% |         512      3.23%     45.84% |         498      3.15%     48.99% |         523      3.30%     52.29% |         537      3.39%     55.69% |         534      3.37%     59.06% |         488      3.08%     62.14% |         475      3.00%     65.14% |         529      3.34%     68.48% |         483      3.05%     71.54% |         458      2.89%     74.43% |         524      3.31%     77.74% |         585      3.70%     81.43% |         528      3.34%     84.77% |         485      3.06%     87.83% |         462      2.92%     90.75% |         514      3.25%     94.00% |         492      3.11%     97.11% |         458      2.89%    100.00%
system.ruby.L2Cache_Controller.IS.Mem_Data::total        15830                      
system.ruby.L2Cache_Controller.IM.Mem_Data |       24724      3.13%      3.13% |       24666      3.12%      6.25% |       24676      3.12%      9.38% |       24680      3.13%     12.50% |       24670      3.12%     15.63% |       24674      3.12%     18.75% |       24675      3.12%     21.88% |       24666      3.12%     25.00% |       24683      3.13%     28.13% |       24680      3.13%     31.25% |       24663      3.12%     34.38% |       24687      3.13%     37.50% |       24675      3.12%     40.63% |       24671      3.12%     43.75% |       24669      3.12%     46.87% |       24662      3.12%     50.00% |       24683      3.13%     53.12% |       24681      3.13%     56.25% |       24678      3.13%     59.37% |       24675      3.12%     62.50% |       24688      3.13%     65.62% |       24695      3.13%     68.75% |       24670      3.12%     71.88% |       24674      3.12%     75.00% |       24686      3.13%     78.13% |       24680      3.13%     81.25% |       24684      3.13%     84.38% |       24672      3.12%     87.50% |       24672      3.12%     90.63% |       24674      3.12%     93.75% |       24685      3.13%     96.88% |       24670      3.12%    100.00%
system.ruby.L2Cache_Controller.IM.Mem_Data::total       789688                      
system.ruby.L2Cache_Controller.SS_MB.Exclusive_Unblock |           2      4.17%      4.17% |           4      8.33%     12.50% |           5     10.42%     22.92% |           3      6.25%     29.17% |           0      0.00%     29.17% |           0      0.00%     29.17% |           0      0.00%     29.17% |           0      0.00%     29.17% |           1      2.08%     31.25% |           1      2.08%     33.33% |           0      0.00%     33.33% |           1      2.08%     35.42% |           6     12.50%     47.92% |           0      0.00%     47.92% |           2      4.17%     52.08% |           0      0.00%     52.08% |           0      0.00%     52.08% |           0      0.00%     52.08% |           7     14.58%     66.67% |           5     10.42%     77.08% |           1      2.08%     79.17% |           0      0.00%     79.17% |           0      0.00%     79.17% |           0      0.00%     79.17% |           1      2.08%     81.25% |           1      2.08%     83.33% |           1      2.08%     85.42% |           1      2.08%     87.50% |           5     10.42%     97.92% |           0      0.00%     97.92% |           1      2.08%    100.00% |           0      0.00%    100.00%
system.ruby.L2Cache_Controller.SS_MB.Exclusive_Unblock::total           48                      
system.ruby.L2Cache_Controller.MT_MB.L1_PUTX |           7    100.00%    100.00% |           0      0.00%    100.00% |           0      0.00%    100.00% |           0      0.00%    100.00% |           0      0.00%    100.00% |           0      0.00%    100.00% |           0      0.00%    100.00% |           0      0.00%    100.00% |           0      0.00%    100.00% |           0      0.00%    100.00% |           0      0.00%    100.00% |           0      0.00%    100.00% |           0      0.00%    100.00% |           0      0.00%    100.00% |           0      0.00%    100.00% |           0      0.00%    100.00% |           0      0.00%    100.00% |           0      0.00%    100.00% |           0      0.00%    100.00% |           0      0.00%    100.00% |           0      0.00%    100.00% |           0      0.00%    100.00% |           0      0.00%    100.00% |           0      0.00%    100.00% |           0      0.00%    100.00% |           0      0.00%    100.00% |           0      0.00%    100.00% |           0      0.00%    100.00% |           0      0.00%    100.00% |           0      0.00%    100.00% |           0      0.00%    100.00% |           0      0.00%    100.00%
system.ruby.L2Cache_Controller.MT_MB.L1_PUTX::total            7                      
system.ruby.L2Cache_Controller.MT_MB.Exclusive_Unblock |      172147      9.60%      9.60% |       54277      3.03%     12.63% |       49285      2.75%     15.38% |       52988      2.96%     18.33% |       53503      2.98%     21.31% |       49515      2.76%     24.08% |       45946      2.56%     26.64% |       45954      2.56%     29.20% |       50928      2.84%     32.04% |       49808      2.78%     34.82% |       54047      3.01%     37.83% |       51021      2.85%     40.68% |       48278      2.69%     43.37% |       46906      2.62%     45.99% |       47875      2.67%     48.66% |       46603      2.60%     51.25% |       50475      2.81%     54.07% |       48361      2.70%     56.77% |       49891      2.78%     59.55% |       54001      3.01%     62.56% |       54513      3.04%     65.60% |       63362      3.53%     69.13% |       57994      3.23%     72.37% |       53236      2.97%     75.34% |       53298      2.97%     78.31% |       51435      2.87%     81.18% |       52498      2.93%     84.11% |       52301      2.92%     87.02% |       55500      3.10%     90.12% |       55155      3.08%     93.19% |       63463      3.54%     96.73% |       58598      3.27%    100.00%
system.ruby.L2Cache_Controller.MT_MB.Exclusive_Unblock::total      1793162                      
system.ruby.L2Cache_Controller.MT_IIB.WB_Data |           0      0.00%      0.00% |           0      0.00%      0.00% |           1      7.14%      7.14% |           1      7.14%     14.29% |           1      7.14%     21.43% |           0      0.00%     21.43% |           1      7.14%     28.57% |           0      0.00%     28.57% |           1      7.14%     35.71% |           1      7.14%     42.86% |           1      7.14%     50.00% |           1      7.14%     57.14% |           1      7.14%     64.29% |           0      0.00%     64.29% |           1      7.14%     71.43% |           1      7.14%     78.57% |           1      7.14%     85.71% |           1      7.14%     92.86% |           1      7.14%    100.00% |           0      0.00%    100.00% |           0      0.00%    100.00% |           0      0.00%    100.00% |           0      0.00%    100.00% |           0      0.00%    100.00% |           0      0.00%    100.00% |           0      0.00%    100.00% |           0      0.00%    100.00% |           0      0.00%    100.00% |           0      0.00%    100.00% |           0      0.00%    100.00% |           0      0.00%    100.00% |           0      0.00%    100.00%
system.ruby.L2Cache_Controller.MT_IIB.WB_Data::total           14                      
system.ruby.L2Cache_Controller.MT_IIB.Unblock |           0      0.00%      0.00% |           0      0.00%      0.00% |           0      0.00%      0.00% |           0      0.00%      0.00% |           0      0.00%      0.00% |           0      0.00%      0.00% |           0      0.00%      0.00% |           1     50.00%     50.00% |           0      0.00%     50.00% |           0      0.00%     50.00% |           0      0.00%     50.00% |           0      0.00%     50.00% |           0      0.00%     50.00% |           1     50.00%    100.00% |           0      0.00%    100.00% |           0      0.00%    100.00% |           0      0.00%    100.00% |           0      0.00%    100.00% |           0      0.00%    100.00% |           0      0.00%    100.00% |           0      0.00%    100.00% |           0      0.00%    100.00% |           0      0.00%    100.00% |           0      0.00%    100.00% |           0      0.00%    100.00% |           0      0.00%    100.00% |           0      0.00%    100.00% |           0      0.00%    100.00% |           0      0.00%    100.00% |           0      0.00%    100.00% |           0      0.00%    100.00% |           0      0.00%    100.00%
system.ruby.L2Cache_Controller.MT_IIB.Unblock::total            2                      
system.ruby.L2Cache_Controller.MT_IB.WB_Data |           0      0.00%      0.00% |           0      0.00%      0.00% |           0      0.00%      0.00% |           0      0.00%      0.00% |           0      0.00%      0.00% |           0      0.00%      0.00% |           0      0.00%      0.00% |           1     50.00%     50.00% |           0      0.00%     50.00% |           0      0.00%     50.00% |           0      0.00%     50.00% |           0      0.00%     50.00% |           0      0.00%     50.00% |           1     50.00%    100.00% |           0      0.00%    100.00% |           0      0.00%    100.00% |           0      0.00%    100.00% |           0      0.00%    100.00% |           0      0.00%    100.00% |           0      0.00%    100.00% |           0      0.00%    100.00% |           0      0.00%    100.00% |           0      0.00%    100.00% |           0      0.00%    100.00% |           0      0.00%    100.00% |           0      0.00%    100.00% |           0      0.00%    100.00% |           0      0.00%    100.00% |           0      0.00%    100.00% |           0      0.00%    100.00% |           0      0.00%    100.00% |           0      0.00%    100.00%
system.ruby.L2Cache_Controller.MT_IB.WB_Data::total            2                      
system.ruby.L2Cache_Controller.MT_SB.Unblock |           0      0.00%      0.00% |           0      0.00%      0.00% |           1      7.14%      7.14% |           1      7.14%     14.29% |           1      7.14%     21.43% |           0      0.00%     21.43% |           1      7.14%     28.57% |           0      0.00%     28.57% |           1      7.14%     35.71% |           1      7.14%     42.86% |           1      7.14%     50.00% |           1      7.14%     57.14% |           1      7.14%     64.29% |           0      0.00%     64.29% |           1      7.14%     71.43% |           1      7.14%     78.57% |           1      7.14%     85.71% |           1      7.14%     92.86% |           1      7.14%    100.00% |           0      0.00%    100.00% |           0      0.00%    100.00% |           0      0.00%    100.00% |           0      0.00%    100.00% |           0      0.00%    100.00% |           0      0.00%    100.00% |           0      0.00%    100.00% |           0      0.00%    100.00% |           0      0.00%    100.00% |           0      0.00%    100.00% |           0      0.00%    100.00% |           0      0.00%    100.00% |           0      0.00%    100.00%
system.ruby.L2Cache_Controller.MT_SB.Unblock::total           14                      
system.ruby.SimicsNetworkPortInterface_Controller.MessageSend |       35703     13.09%     13.09% |      136330     50.00%     63.09% |      100627     36.91%    100.00% |           0      0.00%    100.00% |           0      0.00%    100.00% |           0      0.00%    100.00% |           0      0.00%    100.00% |           0      0.00%    100.00% |           0      0.00%    100.00% |           0      0.00%    100.00% |           0      0.00%    100.00% |           0      0.00%    100.00% |           0      0.00%    100.00% |           0      0.00%    100.00% |           0      0.00%    100.00% |           0      0.00%    100.00% |           0      0.00%    100.00% |           0      0.00%    100.00% |           0      0.00%    100.00% |           0      0.00%    100.00% |           0      0.00%    100.00% |           0      0.00%    100.00% |           0      0.00%    100.00% |           0      0.00%    100.00% |           0      0.00%    100.00% |           0      0.00%    100.00% |           0      0.00%    100.00% |           0      0.00%    100.00% |           0      0.00%    100.00% |           0      0.00%    100.00% |           0      0.00%    100.00% |           0      0.00%    100.00%
system.ruby.SimicsNetworkPortInterface_Controller.MessageSend::total       272660                      
system.ruby.SimicsNetworkPortInterface_Controller.MessageRecv |       35703     13.09%     13.09% |      136330     50.00%     63.09% |      100627     36.91%    100.00% |           0      0.00%    100.00% |           0      0.00%    100.00% |           0      0.00%    100.00% |           0      0.00%    100.00% |           0      0.00%    100.00% |           0      0.00%    100.00% |           0      0.00%    100.00% |           0      0.00%    100.00% |           0      0.00%    100.00% |           0      0.00%    100.00% |           0      0.00%    100.00% |           0      0.00%    100.00% |           0      0.00%    100.00% |           0      0.00%    100.00% |           0      0.00%    100.00% |           0      0.00%    100.00% |           0      0.00%    100.00% |           0      0.00%    100.00% |           0      0.00%    100.00% |           0      0.00%    100.00% |           0      0.00%    100.00% |           0      0.00%    100.00% |           0      0.00%    100.00% |           0      0.00%    100.00% |           0      0.00%    100.00% |           0      0.00%    100.00% |           0      0.00%    100.00% |           0      0.00%    100.00% |           0      0.00%    100.00%
system.ruby.SimicsNetworkPortInterface_Controller.MessageRecv::total       272660                      
system.ruby.SimicsNetworkPortInterface_Controller.A.MessageSend |       35703     13.09%     13.09% |      136330     50.00%     63.09% |      100627     36.91%    100.00% |           0      0.00%    100.00% |           0      0.00%    100.00% |           0      0.00%    100.00% |           0      0.00%    100.00% |           0      0.00%    100.00% |           0      0.00%    100.00% |           0      0.00%    100.00% |           0      0.00%    100.00% |           0      0.00%    100.00% |           0      0.00%    100.00% |           0      0.00%    100.00% |           0      0.00%    100.00% |           0      0.00%    100.00% |           0      0.00%    100.00% |           0      0.00%    100.00% |           0      0.00%    100.00% |           0      0.00%    100.00% |           0      0.00%    100.00% |           0      0.00%    100.00% |           0      0.00%    100.00% |           0      0.00%    100.00% |           0      0.00%    100.00% |           0      0.00%    100.00% |           0      0.00%    100.00% |           0      0.00%    100.00% |           0      0.00%    100.00% |           0      0.00%    100.00% |           0      0.00%    100.00% |           0      0.00%    100.00%
system.ruby.SimicsNetworkPortInterface_Controller.A.MessageSend::total       272660                      
system.ruby.SimicsNetworkPortInterface_Controller.A.MessageRecv |       35703     13.09%     13.09% |      136330     50.00%     63.09% |      100627     36.91%    100.00% |           0      0.00%    100.00% |           0      0.00%    100.00% |           0      0.00%    100.00% |           0      0.00%    100.00% |           0      0.00%    100.00% |           0      0.00%    100.00% |           0      0.00%    100.00% |           0      0.00%    100.00% |           0      0.00%    100.00% |           0      0.00%    100.00% |           0      0.00%    100.00% |           0      0.00%    100.00% |           0      0.00%    100.00% |           0      0.00%    100.00% |           0      0.00%    100.00% |           0      0.00%    100.00% |           0      0.00%    100.00% |           0      0.00%    100.00% |           0      0.00%    100.00% |           0      0.00%    100.00% |           0      0.00%    100.00% |           0      0.00%    100.00% |           0      0.00%    100.00% |           0      0.00%    100.00% |           0      0.00%    100.00% |           0      0.00%    100.00% |           0      0.00%    100.00% |           0      0.00%    100.00% |           0      0.00%    100.00%
system.ruby.SimicsNetworkPortInterface_Controller.A.MessageRecv::total       272660                      
system.switch_cpus.kern.inst.arm                    0                       # number of arm instructions executed
system.switch_cpus.kern.inst.quiesce                0                       # number of quiesce instructions executed

---------- End Simulation Statistics   ----------
