
---------- Begin Simulation Statistics ----------
sim_seconds                                  0.093492                       # Number of seconds simulated
sim_ticks                                 93492320000                       # Number of ticks simulated
final_tick                               5269660398500                       # Number of ticks from beginning of simulation (restored from checkpoints and never reset)
sim_freq                                 1000000000000                       # Frequency of simulated ticks
host_inst_rate                                  50417                       # Simulator instruction rate (inst/s)
host_op_rate                                    88881                       # Simulator op (including micro ops) rate (op/s)
host_tick_rate                              110174389                       # Simulator tick rate (ticks/s)
host_mem_usage                                6010340                       # Number of bytes of host memory used
host_seconds                                   848.58                       # Real time elapsed on the host
sim_insts                                    42782999                       # Number of instructions simulated
sim_ops                                      75423266                       # Number of ops (including micro ops) simulated
system.voltage_domain.voltage                       1                       # Voltage in Volts
system.clk_domain.clock                           500                       # Clock period in ticks
system.mem_ctrls0.bytes_read::ruby.dir_cntrl0     21118208                       # Number of bytes read from this memory
system.mem_ctrls0.bytes_read::total          21118208                       # Number of bytes read from this memory
system.mem_ctrls0.bytes_written::ruby.dir_cntrl0     11912832                       # Number of bytes written to this memory
system.mem_ctrls0.bytes_written::total       11912832                       # Number of bytes written to this memory
system.mem_ctrls0.num_reads::ruby.dir_cntrl0       329972                       # Number of read requests responded to by this memory
system.mem_ctrls0.num_reads::total             329972                       # Number of read requests responded to by this memory
system.mem_ctrls0.num_writes::ruby.dir_cntrl0       186138                       # Number of write requests responded to by this memory
system.mem_ctrls0.num_writes::total            186138                       # Number of write requests responded to by this memory
system.mem_ctrls0.bw_read::ruby.dir_cntrl0    225881741                       # Total read bandwidth from this memory (bytes/s)
system.mem_ctrls0.bw_read::total            225881741                       # Total read bandwidth from this memory (bytes/s)
system.mem_ctrls0.bw_write::ruby.dir_cntrl0    127420434                       # Write bandwidth from this memory (bytes/s)
system.mem_ctrls0.bw_write::total           127420434                       # Write bandwidth from this memory (bytes/s)
system.mem_ctrls0.bw_total::ruby.dir_cntrl0    353302175                       # Total bandwidth to/from this memory (bytes/s)
system.mem_ctrls0.bw_total::total           353302175                       # Total bandwidth to/from this memory (bytes/s)
system.mem_ctrls0.readReqs                     329972                       # Number of read requests accepted
system.mem_ctrls0.writeReqs                    186138                       # Number of write requests accepted
system.mem_ctrls0.readBursts                   329972                       # Number of DRAM read bursts, including those serviced by the write queue
system.mem_ctrls0.writeBursts                  186138                       # Number of DRAM write bursts, including those merged in the write queue
system.mem_ctrls0.bytesReadDRAM              21115840                       # Total number of bytes read from DRAM
system.mem_ctrls0.bytesReadWrQ                   2368                       # Total number of bytes read from write queue
system.mem_ctrls0.bytesWritten               11912640                       # Total number of bytes written to DRAM
system.mem_ctrls0.bytesReadSys               21118208                       # Total read bytes from the system interface side
system.mem_ctrls0.bytesWrittenSys            11912832                       # Total written bytes from the system interface side
system.mem_ctrls0.servicedByWrQ                    37                       # Number of DRAM read bursts serviced by the write queue
system.mem_ctrls0.mergedWrBursts                    0                       # Number of DRAM write bursts merged with an existing one
system.mem_ctrls0.neitherReadNorWriteReqs            0                       # Number of requests that are neither read nor write
system.mem_ctrls0.perBankRdBursts::0            20355                       # Per bank write bursts
system.mem_ctrls0.perBankRdBursts::1            21002                       # Per bank write bursts
system.mem_ctrls0.perBankRdBursts::2            20498                       # Per bank write bursts
system.mem_ctrls0.perBankRdBursts::3            20879                       # Per bank write bursts
system.mem_ctrls0.perBankRdBursts::4            20503                       # Per bank write bursts
system.mem_ctrls0.perBankRdBursts::5            21063                       # Per bank write bursts
system.mem_ctrls0.perBankRdBursts::6            20626                       # Per bank write bursts
system.mem_ctrls0.perBankRdBursts::7            20714                       # Per bank write bursts
system.mem_ctrls0.perBankRdBursts::8            20683                       # Per bank write bursts
system.mem_ctrls0.perBankRdBursts::9            20886                       # Per bank write bursts
system.mem_ctrls0.perBankRdBursts::10           20585                       # Per bank write bursts
system.mem_ctrls0.perBankRdBursts::11           20939                       # Per bank write bursts
system.mem_ctrls0.perBankRdBursts::12           20232                       # Per bank write bursts
system.mem_ctrls0.perBankRdBursts::13           20162                       # Per bank write bursts
system.mem_ctrls0.perBankRdBursts::14           20425                       # Per bank write bursts
system.mem_ctrls0.perBankRdBursts::15           20383                       # Per bank write bursts
system.mem_ctrls0.perBankWrBursts::0            11505                       # Per bank write bursts
system.mem_ctrls0.perBankWrBursts::1            11655                       # Per bank write bursts
system.mem_ctrls0.perBankWrBursts::2            11672                       # Per bank write bursts
system.mem_ctrls0.perBankWrBursts::3            11650                       # Per bank write bursts
system.mem_ctrls0.perBankWrBursts::4            11615                       # Per bank write bursts
system.mem_ctrls0.perBankWrBursts::5            11926                       # Per bank write bursts
system.mem_ctrls0.perBankWrBursts::6            11565                       # Per bank write bursts
system.mem_ctrls0.perBankWrBursts::7            11679                       # Per bank write bursts
system.mem_ctrls0.perBankWrBursts::8            11899                       # Per bank write bursts
system.mem_ctrls0.perBankWrBursts::9            11730                       # Per bank write bursts
system.mem_ctrls0.perBankWrBursts::10           11524                       # Per bank write bursts
system.mem_ctrls0.perBankWrBursts::11           11706                       # Per bank write bursts
system.mem_ctrls0.perBankWrBursts::12           11351                       # Per bank write bursts
system.mem_ctrls0.perBankWrBursts::13           11313                       # Per bank write bursts
system.mem_ctrls0.perBankWrBursts::14           11752                       # Per bank write bursts
system.mem_ctrls0.perBankWrBursts::15           11593                       # Per bank write bursts
system.mem_ctrls0.numRdRetry                     2975                       # Number of times read queue was full causing retry
system.mem_ctrls0.numWrRetry                     1864                       # Number of times write queue was full causing retry
system.mem_ctrls0.totGap                  93491760000                       # Total gap between requests
system.mem_ctrls0.readPktSize::0                    0                       # Read request sizes (log2)
system.mem_ctrls0.readPktSize::1                    0                       # Read request sizes (log2)
system.mem_ctrls0.readPktSize::2                    0                       # Read request sizes (log2)
system.mem_ctrls0.readPktSize::3                    0                       # Read request sizes (log2)
system.mem_ctrls0.readPktSize::4                    0                       # Read request sizes (log2)
system.mem_ctrls0.readPktSize::5                    0                       # Read request sizes (log2)
system.mem_ctrls0.readPktSize::6               329972                       # Read request sizes (log2)
system.mem_ctrls0.writePktSize::0                   0                       # Write request sizes (log2)
system.mem_ctrls0.writePktSize::1                   0                       # Write request sizes (log2)
system.mem_ctrls0.writePktSize::2                   0                       # Write request sizes (log2)
system.mem_ctrls0.writePktSize::3                   0                       # Write request sizes (log2)
system.mem_ctrls0.writePktSize::4                   0                       # Write request sizes (log2)
system.mem_ctrls0.writePktSize::5                   0                       # Write request sizes (log2)
system.mem_ctrls0.writePktSize::6              186138                       # Write request sizes (log2)
system.mem_ctrls0.rdQLenPdf::0                 161286                       # What read queue length does an incoming req see
system.mem_ctrls0.rdQLenPdf::1                  42823                       # What read queue length does an incoming req see
system.mem_ctrls0.rdQLenPdf::2                  31464                       # What read queue length does an incoming req see
system.mem_ctrls0.rdQLenPdf::3                  22101                       # What read queue length does an incoming req see
system.mem_ctrls0.rdQLenPdf::4                  16085                       # What read queue length does an incoming req see
system.mem_ctrls0.rdQLenPdf::5                  12060                       # What read queue length does an incoming req see
system.mem_ctrls0.rdQLenPdf::6                   8797                       # What read queue length does an incoming req see
system.mem_ctrls0.rdQLenPdf::7                   6719                       # What read queue length does an incoming req see
system.mem_ctrls0.rdQLenPdf::8                   5182                       # What read queue length does an incoming req see
system.mem_ctrls0.rdQLenPdf::9                   3912                       # What read queue length does an incoming req see
system.mem_ctrls0.rdQLenPdf::10                  2963                       # What read queue length does an incoming req see
system.mem_ctrls0.rdQLenPdf::11                  2287                       # What read queue length does an incoming req see
system.mem_ctrls0.rdQLenPdf::12                  1811                       # What read queue length does an incoming req see
system.mem_ctrls0.rdQLenPdf::13                  1449                       # What read queue length does an incoming req see
system.mem_ctrls0.rdQLenPdf::14                  1231                       # What read queue length does an incoming req see
system.mem_ctrls0.rdQLenPdf::15                   983                       # What read queue length does an incoming req see
system.mem_ctrls0.rdQLenPdf::16                   804                       # What read queue length does an incoming req see
system.mem_ctrls0.rdQLenPdf::17                   649                       # What read queue length does an incoming req see
system.mem_ctrls0.rdQLenPdf::18                   554                       # What read queue length does an incoming req see
system.mem_ctrls0.rdQLenPdf::19                   456                       # What read queue length does an incoming req see
system.mem_ctrls0.rdQLenPdf::20                   407                       # What read queue length does an incoming req see
system.mem_ctrls0.rdQLenPdf::21                   337                       # What read queue length does an incoming req see
system.mem_ctrls0.rdQLenPdf::22                   304                       # What read queue length does an incoming req see
system.mem_ctrls0.rdQLenPdf::23                   255                       # What read queue length does an incoming req see
system.mem_ctrls0.rdQLenPdf::24                   224                       # What read queue length does an incoming req see
system.mem_ctrls0.rdQLenPdf::25                   211                       # What read queue length does an incoming req see
system.mem_ctrls0.rdQLenPdf::26                   211                       # What read queue length does an incoming req see
system.mem_ctrls0.rdQLenPdf::27                   201                       # What read queue length does an incoming req see
system.mem_ctrls0.rdQLenPdf::28                   196                       # What read queue length does an incoming req see
system.mem_ctrls0.rdQLenPdf::29                   214                       # What read queue length does an incoming req see
system.mem_ctrls0.rdQLenPdf::30                   266                       # What read queue length does an incoming req see
system.mem_ctrls0.rdQLenPdf::31                  3493                       # What read queue length does an incoming req see
system.mem_ctrls0.wrQLenPdf::0                  33549                       # What write queue length does an incoming req see
system.mem_ctrls0.wrQLenPdf::1                  36001                       # What write queue length does an incoming req see
system.mem_ctrls0.wrQLenPdf::2                  36487                       # What write queue length does an incoming req see
system.mem_ctrls0.wrQLenPdf::3                  36219                       # What write queue length does an incoming req see
system.mem_ctrls0.wrQLenPdf::4                  35646                       # What write queue length does an incoming req see
system.mem_ctrls0.wrQLenPdf::5                   2917                       # What write queue length does an incoming req see
system.mem_ctrls0.wrQLenPdf::6                   2038                       # What write queue length does an incoming req see
system.mem_ctrls0.wrQLenPdf::7                   3281                       # What write queue length does an incoming req see
system.mem_ctrls0.bytesPerActivate::samples       156496                       # Bytes accessed per row activation
system.mem_ctrls0.bytesPerActivate::mean   211.044270                       # Bytes accessed per row activation
system.mem_ctrls0.bytesPerActivate::gmean   158.373099                       # Bytes accessed per row activation
system.mem_ctrls0.bytesPerActivate::stdev   175.918150                       # Bytes accessed per row activation
system.mem_ctrls0.bytesPerActivate::0-127        50209     32.08%     32.08% # Bytes accessed per row activation
system.mem_ctrls0.bytesPerActivate::128-255        46634     29.80%     61.88% # Bytes accessed per row activation
system.mem_ctrls0.bytesPerActivate::256-383        43208     27.61%     89.49% # Bytes accessed per row activation
system.mem_ctrls0.bytesPerActivate::384-511         6469      4.13%     93.63% # Bytes accessed per row activation
system.mem_ctrls0.bytesPerActivate::512-639         3952      2.53%     96.15% # Bytes accessed per row activation
system.mem_ctrls0.bytesPerActivate::640-767         1976      1.26%     97.41% # Bytes accessed per row activation
system.mem_ctrls0.bytesPerActivate::768-895         1326      0.85%     98.26% # Bytes accessed per row activation
system.mem_ctrls0.bytesPerActivate::896-1023          932      0.60%     98.86% # Bytes accessed per row activation
system.mem_ctrls0.bytesPerActivate::1024-1151         1790      1.14%    100.00% # Bytes accessed per row activation
system.mem_ctrls0.bytesPerActivate::total       156496                       # Bytes accessed per row activation
system.mem_ctrls0.rdPerTurnAround::samples        33780                       # Reads before turning the bus around for writes
system.mem_ctrls0.rdPerTurnAround::mean      9.767022                       # Reads before turning the bus around for writes
system.mem_ctrls0.rdPerTurnAround::stdev    23.680184                       # Reads before turning the bus around for writes
system.mem_ctrls0.rdPerTurnAround::0-127        33773     99.98%     99.98% # Reads before turning the bus around for writes
system.mem_ctrls0.rdPerTurnAround::128-255            6      0.02%    100.00% # Reads before turning the bus around for writes
system.mem_ctrls0.rdPerTurnAround::3968-4095            1      0.00%    100.00% # Reads before turning the bus around for writes
system.mem_ctrls0.rdPerTurnAround::total        33780                       # Reads before turning the bus around for writes
system.mem_ctrls0.wrPerTurnAround::samples        33780                       # Writes before turning the bus around for reads
system.mem_ctrls0.wrPerTurnAround::mean      5.510213                       # Writes before turning the bus around for reads
system.mem_ctrls0.wrPerTurnAround::gmean     5.379144                       # Writes before turning the bus around for reads
system.mem_ctrls0.wrPerTurnAround::stdev     1.560255                       # Writes before turning the bus around for reads
system.mem_ctrls0.wrPerTurnAround::4-7          31628     93.63%     93.63% # Writes before turning the bus around for reads
system.mem_ctrls0.wrPerTurnAround::8-11          1535      4.54%     98.17% # Writes before turning the bus around for reads
system.mem_ctrls0.wrPerTurnAround::12-15          317      0.94%     99.11% # Writes before turning the bus around for reads
system.mem_ctrls0.wrPerTurnAround::16-19          300      0.89%    100.00% # Writes before turning the bus around for reads
system.mem_ctrls0.wrPerTurnAround::total        33780                       # Writes before turning the bus around for reads
system.mem_ctrls0.totQLat                 12305945642                       # Total ticks spent queuing
system.mem_ctrls0.totMemAccLat            18492226892                       # Total ticks spent from burst creation until serviced by the DRAM
system.mem_ctrls0.totBusLat                1649675000                       # Total ticks spent in databus transfers
system.mem_ctrls0.avgQLat                    37298.09                       # Average queueing delay per DRAM burst
system.mem_ctrls0.avgBusLat                   5000.00                       # Average bus latency per DRAM burst
system.mem_ctrls0.avgMemAccLat               56048.09                       # Average memory access latency per DRAM burst
system.mem_ctrls0.avgRdBW                      225.86                       # Average DRAM read bandwidth in MiByte/s
system.mem_ctrls0.avgWrBW                      127.42                       # Average achieved write bandwidth in MiByte/s
system.mem_ctrls0.avgRdBWSys                   225.88                       # Average system read bandwidth in MiByte/s
system.mem_ctrls0.avgWrBWSys                   127.42                       # Average system write bandwidth in MiByte/s
system.mem_ctrls0.peakBW                     12800.00                       # Theoretical peak bandwidth in MiByte/s
system.mem_ctrls0.busUtil                        2.76                       # Data bus utilization in percentage
system.mem_ctrls0.busUtilRead                    1.76                       # Data bus utilization in percentage for reads
system.mem_ctrls0.busUtilWrite                   1.00                       # Data bus utilization in percentage for writes
system.mem_ctrls0.avgRdQLen                      1.20                       # Average read queue length when enqueuing
system.mem_ctrls0.avgWrQLen                      2.96                       # Average write queue length when enqueuing
system.mem_ctrls0.readRowHits                  247963                       # Number of row buffer hits during reads
system.mem_ctrls0.writeRowHits                 111599                       # Number of row buffer hits during writes
system.mem_ctrls0.readRowHitRate                75.16                       # Row buffer hit rate for reads
system.mem_ctrls0.writeRowHitRate               59.95                       # Row buffer hit rate for writes
system.mem_ctrls0.avgGap                    181146.96                       # Average gap between requests
system.mem_ctrls0.pageHitRate                   69.67                       # Row buffer hit rate, read and write combined
system.mem_ctrls0.memoryStateTime::IDLE   15203572750                       # Time in different power states
system.mem_ctrls0.memoryStateTime::REF     3121820000                       # Time in different power states
system.mem_ctrls0.memoryStateTime::PRE_PDN            0                       # Time in different power states
system.mem_ctrls0.memoryStateTime::ACT    75164384750                       # Time in different power states
system.mem_ctrls0.memoryStateTime::ACT_PDN            0                       # Time in different power states
system.mem_ctrls0.actEnergy::0              597209760                       # Energy for activate commands per rank (pJ)
system.mem_ctrls0.actEnergy::1              585839520                       # Energy for activate commands per rank (pJ)
system.mem_ctrls0.preEnergy::0              325858500                       # Energy for precharge commands per rank (pJ)
system.mem_ctrls0.preEnergy::1              319654500                       # Energy for precharge commands per rank (pJ)
system.mem_ctrls0.readEnergy::0            1291921800                       # Energy for read commands per rank (pJ)
system.mem_ctrls0.readEnergy::1            1281438600                       # Energy for read commands per rank (pJ)
system.mem_ctrls0.writeEnergy::0            604357200                       # Energy for write commands per rank (pJ)
system.mem_ctrls0.writeEnergy::1            601765200                       # Energy for write commands per rank (pJ)
system.mem_ctrls0.refreshEnergy::0         6106279920                       # Energy for refresh commands per rank (pJ)
system.mem_ctrls0.refreshEnergy::1         6106279920                       # Energy for refresh commands per rank (pJ)
system.mem_ctrls0.actBackEnergy::0        38989605690                       # Energy for active background per rank (pJ)
system.mem_ctrls0.actBackEnergy::1        38272844655                       # Energy for active background per rank (pJ)
system.mem_ctrls0.preBackEnergy::0        21892449750                       # Energy for precharge background per rank (pJ)
system.mem_ctrls0.preBackEnergy::1        22521187500                       # Energy for precharge background per rank (pJ)
system.mem_ctrls0.totalEnergy::0          69807682620                       # Total energy per rank (pJ)
system.mem_ctrls0.totalEnergy::1          69689009895                       # Total energy per rank (pJ)
system.mem_ctrls0.averagePower::0          746.687978                       # Core power per rank (mW)
system.mem_ctrls0.averagePower::1          745.418612                       # Core power per rank (mW)
system.mem_ctrls1.bytes_read::ruby.dir_cntrl1     20702016                       # Number of bytes read from this memory
system.mem_ctrls1.bytes_read::total          20702016                       # Number of bytes read from this memory
system.mem_ctrls1.bytes_written::ruby.dir_cntrl1     11494208                       # Number of bytes written to this memory
system.mem_ctrls1.bytes_written::total       11494208                       # Number of bytes written to this memory
system.mem_ctrls1.num_reads::ruby.dir_cntrl1       323469                       # Number of read requests responded to by this memory
system.mem_ctrls1.num_reads::total             323469                       # Number of read requests responded to by this memory
system.mem_ctrls1.num_writes::ruby.dir_cntrl1       179597                       # Number of write requests responded to by this memory
system.mem_ctrls1.num_writes::total            179597                       # Number of write requests responded to by this memory
system.mem_ctrls1.bw_read::ruby.dir_cntrl1    221430124                       # Total read bandwidth from this memory (bytes/s)
system.mem_ctrls1.bw_read::total            221430124                       # Total read bandwidth from this memory (bytes/s)
system.mem_ctrls1.bw_write::ruby.dir_cntrl1    122942804                       # Write bandwidth from this memory (bytes/s)
system.mem_ctrls1.bw_write::total           122942804                       # Write bandwidth from this memory (bytes/s)
system.mem_ctrls1.bw_total::ruby.dir_cntrl1    344372928                       # Total bandwidth to/from this memory (bytes/s)
system.mem_ctrls1.bw_total::total           344372928                       # Total bandwidth to/from this memory (bytes/s)
system.mem_ctrls1.readReqs                     323469                       # Number of read requests accepted
system.mem_ctrls1.writeReqs                    179597                       # Number of write requests accepted
system.mem_ctrls1.readBursts                   323469                       # Number of DRAM read bursts, including those serviced by the write queue
system.mem_ctrls1.writeBursts                  179597                       # Number of DRAM write bursts, including those merged in the write queue
system.mem_ctrls1.bytesReadDRAM              20700160                       # Total number of bytes read from DRAM
system.mem_ctrls1.bytesReadWrQ                   1856                       # Total number of bytes read from write queue
system.mem_ctrls1.bytesWritten               11493952                       # Total number of bytes written to DRAM
system.mem_ctrls1.bytesReadSys               20702016                       # Total read bytes from the system interface side
system.mem_ctrls1.bytesWrittenSys            11494208                       # Total written bytes from the system interface side
system.mem_ctrls1.servicedByWrQ                    29                       # Number of DRAM read bursts serviced by the write queue
system.mem_ctrls1.mergedWrBursts                    0                       # Number of DRAM write bursts merged with an existing one
system.mem_ctrls1.neitherReadNorWriteReqs            0                       # Number of requests that are neither read nor write
system.mem_ctrls1.perBankRdBursts::0            19962                       # Per bank write bursts
system.mem_ctrls1.perBankRdBursts::1            20556                       # Per bank write bursts
system.mem_ctrls1.perBankRdBursts::2            20097                       # Per bank write bursts
system.mem_ctrls1.perBankRdBursts::3            20449                       # Per bank write bursts
system.mem_ctrls1.perBankRdBursts::4            20139                       # Per bank write bursts
system.mem_ctrls1.perBankRdBursts::5            20629                       # Per bank write bursts
system.mem_ctrls1.perBankRdBursts::6            20226                       # Per bank write bursts
system.mem_ctrls1.perBankRdBursts::7            20404                       # Per bank write bursts
system.mem_ctrls1.perBankRdBursts::8            20271                       # Per bank write bursts
system.mem_ctrls1.perBankRdBursts::9            20437                       # Per bank write bursts
system.mem_ctrls1.perBankRdBursts::10           20203                       # Per bank write bursts
system.mem_ctrls1.perBankRdBursts::11           20525                       # Per bank write bursts
system.mem_ctrls1.perBankRdBursts::12           19837                       # Per bank write bursts
system.mem_ctrls1.perBankRdBursts::13           19738                       # Per bank write bursts
system.mem_ctrls1.perBankRdBursts::14           19938                       # Per bank write bursts
system.mem_ctrls1.perBankRdBursts::15           20029                       # Per bank write bursts
system.mem_ctrls1.perBankWrBursts::0            11114                       # Per bank write bursts
system.mem_ctrls1.perBankWrBursts::1            11255                       # Per bank write bursts
system.mem_ctrls1.perBankWrBursts::2            11263                       # Per bank write bursts
system.mem_ctrls1.perBankWrBursts::3            11245                       # Per bank write bursts
system.mem_ctrls1.perBankWrBursts::4            11218                       # Per bank write bursts
system.mem_ctrls1.perBankWrBursts::5            11525                       # Per bank write bursts
system.mem_ctrls1.perBankWrBursts::6            11142                       # Per bank write bursts
system.mem_ctrls1.perBankWrBursts::7            11266                       # Per bank write bursts
system.mem_ctrls1.perBankWrBursts::8            11491                       # Per bank write bursts
system.mem_ctrls1.perBankWrBursts::9            11304                       # Per bank write bursts
system.mem_ctrls1.perBankWrBursts::10           11129                       # Per bank write bursts
system.mem_ctrls1.perBankWrBursts::11           11295                       # Per bank write bursts
system.mem_ctrls1.perBankWrBursts::12           10946                       # Per bank write bursts
system.mem_ctrls1.perBankWrBursts::13           10911                       # Per bank write bursts
system.mem_ctrls1.perBankWrBursts::14           11290                       # Per bank write bursts
system.mem_ctrls1.perBankWrBursts::15           11199                       # Per bank write bursts
system.mem_ctrls1.numRdRetry                     1819                       # Number of times read queue was full causing retry
system.mem_ctrls1.numWrRetry                     1594                       # Number of times write queue was full causing retry
system.mem_ctrls1.totGap                  93491489000                       # Total gap between requests
system.mem_ctrls1.readPktSize::0                    0                       # Read request sizes (log2)
system.mem_ctrls1.readPktSize::1                    0                       # Read request sizes (log2)
system.mem_ctrls1.readPktSize::2                    0                       # Read request sizes (log2)
system.mem_ctrls1.readPktSize::3                    0                       # Read request sizes (log2)
system.mem_ctrls1.readPktSize::4                    0                       # Read request sizes (log2)
system.mem_ctrls1.readPktSize::5                    0                       # Read request sizes (log2)
system.mem_ctrls1.readPktSize::6               323469                       # Read request sizes (log2)
system.mem_ctrls1.writePktSize::0                   0                       # Write request sizes (log2)
system.mem_ctrls1.writePktSize::1                   0                       # Write request sizes (log2)
system.mem_ctrls1.writePktSize::2                   0                       # Write request sizes (log2)
system.mem_ctrls1.writePktSize::3                   0                       # Write request sizes (log2)
system.mem_ctrls1.writePktSize::4                   0                       # Write request sizes (log2)
system.mem_ctrls1.writePktSize::5                   0                       # Write request sizes (log2)
system.mem_ctrls1.writePktSize::6              179597                       # Write request sizes (log2)
system.mem_ctrls1.rdQLenPdf::0                 157826                       # What read queue length does an incoming req see
system.mem_ctrls1.rdQLenPdf::1                  39983                       # What read queue length does an incoming req see
system.mem_ctrls1.rdQLenPdf::2                  30621                       # What read queue length does an incoming req see
system.mem_ctrls1.rdQLenPdf::3                  22387                       # What read queue length does an incoming req see
system.mem_ctrls1.rdQLenPdf::4                  16369                       # What read queue length does an incoming req see
system.mem_ctrls1.rdQLenPdf::5                  12194                       # What read queue length does an incoming req see
system.mem_ctrls1.rdQLenPdf::6                   9327                       # What read queue length does an incoming req see
system.mem_ctrls1.rdQLenPdf::7                   7079                       # What read queue length does an incoming req see
system.mem_ctrls1.rdQLenPdf::8                   5311                       # What read queue length does an incoming req see
system.mem_ctrls1.rdQLenPdf::9                   4167                       # What read queue length does an incoming req see
system.mem_ctrls1.rdQLenPdf::10                  3088                       # What read queue length does an incoming req see
system.mem_ctrls1.rdQLenPdf::11                  2426                       # What read queue length does an incoming req see
system.mem_ctrls1.rdQLenPdf::12                  1930                       # What read queue length does an incoming req see
system.mem_ctrls1.rdQLenPdf::13                  1535                       # What read queue length does an incoming req see
system.mem_ctrls1.rdQLenPdf::14                  1226                       # What read queue length does an incoming req see
system.mem_ctrls1.rdQLenPdf::15                   957                       # What read queue length does an incoming req see
system.mem_ctrls1.rdQLenPdf::16                   739                       # What read queue length does an incoming req see
system.mem_ctrls1.rdQLenPdf::17                   604                       # What read queue length does an incoming req see
system.mem_ctrls1.rdQLenPdf::18                   539                       # What read queue length does an incoming req see
system.mem_ctrls1.rdQLenPdf::19                   441                       # What read queue length does an incoming req see
system.mem_ctrls1.rdQLenPdf::20                   383                       # What read queue length does an incoming req see
system.mem_ctrls1.rdQLenPdf::21                   359                       # What read queue length does an incoming req see
system.mem_ctrls1.rdQLenPdf::22                   309                       # What read queue length does an incoming req see
system.mem_ctrls1.rdQLenPdf::23                   266                       # What read queue length does an incoming req see
system.mem_ctrls1.rdQLenPdf::24                   224                       # What read queue length does an incoming req see
system.mem_ctrls1.rdQLenPdf::25                   216                       # What read queue length does an incoming req see
system.mem_ctrls1.rdQLenPdf::26                   207                       # What read queue length does an incoming req see
system.mem_ctrls1.rdQLenPdf::27                   160                       # What read queue length does an incoming req see
system.mem_ctrls1.rdQLenPdf::28                   137                       # What read queue length does an incoming req see
system.mem_ctrls1.rdQLenPdf::29                   150                       # What read queue length does an incoming req see
system.mem_ctrls1.rdQLenPdf::30                   181                       # What read queue length does an incoming req see
system.mem_ctrls1.rdQLenPdf::31                  2099                       # What read queue length does an incoming req see
system.mem_ctrls1.wrQLenPdf::0                  32449                       # What write queue length does an incoming req see
system.mem_ctrls1.wrQLenPdf::1                  34725                       # What write queue length does an incoming req see
system.mem_ctrls1.wrQLenPdf::2                  35170                       # What write queue length does an incoming req see
system.mem_ctrls1.wrQLenPdf::3                  35012                       # What write queue length does an incoming req see
system.mem_ctrls1.wrQLenPdf::4                  34525                       # What write queue length does an incoming req see
system.mem_ctrls1.wrQLenPdf::5                   2942                       # What write queue length does an incoming req see
system.mem_ctrls1.wrQLenPdf::6                   1978                       # What write queue length does an incoming req see
system.mem_ctrls1.wrQLenPdf::7                   2796                       # What write queue length does an incoming req see
system.mem_ctrls1.bytesPerActivate::samples       147925                       # Bytes accessed per row activation
system.mem_ctrls1.bytesPerActivate::mean   217.633314                       # Bytes accessed per row activation
system.mem_ctrls1.bytesPerActivate::gmean   162.997083                       # Bytes accessed per row activation
system.mem_ctrls1.bytesPerActivate::stdev   179.235783                       # Bytes accessed per row activation
system.mem_ctrls1.bytesPerActivate::0-127        46081     31.15%     31.15% # Bytes accessed per row activation
system.mem_ctrls1.bytesPerActivate::128-255        41962     28.37%     59.52% # Bytes accessed per row activation
system.mem_ctrls1.bytesPerActivate::256-383        43137     29.16%     88.68% # Bytes accessed per row activation
system.mem_ctrls1.bytesPerActivate::384-511         6555      4.43%     93.11% # Bytes accessed per row activation
system.mem_ctrls1.bytesPerActivate::512-639         3953      2.67%     95.78% # Bytes accessed per row activation
system.mem_ctrls1.bytesPerActivate::640-767         2223      1.50%     97.29% # Bytes accessed per row activation
system.mem_ctrls1.bytesPerActivate::768-895         1389      0.94%     98.23% # Bytes accessed per row activation
system.mem_ctrls1.bytesPerActivate::896-1023          901      0.61%     98.83% # Bytes accessed per row activation
system.mem_ctrls1.bytesPerActivate::1024-1151         1724      1.17%    100.00% # Bytes accessed per row activation
system.mem_ctrls1.bytesPerActivate::total       147925                       # Bytes accessed per row activation
system.mem_ctrls1.rdPerTurnAround::samples        32659                       # Reads before turning the bus around for writes
system.mem_ctrls1.rdPerTurnAround::mean      9.902508                       # Reads before turning the bus around for writes
system.mem_ctrls1.rdPerTurnAround::stdev    19.719260                       # Reads before turning the bus around for writes
system.mem_ctrls1.rdPerTurnAround::0-127        32653     99.98%     99.98% # Reads before turning the bus around for writes
system.mem_ctrls1.rdPerTurnAround::128-255            4      0.01%     99.99% # Reads before turning the bus around for writes
system.mem_ctrls1.rdPerTurnAround::1152-1279            1      0.00%    100.00% # Reads before turning the bus around for writes
system.mem_ctrls1.rdPerTurnAround::2816-2943            1      0.00%    100.00% # Reads before turning the bus around for writes
system.mem_ctrls1.rdPerTurnAround::total        32659                       # Reads before turning the bus around for writes
system.mem_ctrls1.wrPerTurnAround::samples        32659                       # Writes before turning the bus around for reads
system.mem_ctrls1.wrPerTurnAround::mean      5.499035                       # Writes before turning the bus around for reads
system.mem_ctrls1.wrPerTurnAround::gmean     5.370500                       # Writes before turning the bus around for reads
system.mem_ctrls1.wrPerTurnAround::stdev     1.538518                       # Writes before turning the bus around for reads
system.mem_ctrls1.wrPerTurnAround::4-7          30554     93.55%     93.55% # Writes before turning the bus around for reads
system.mem_ctrls1.wrPerTurnAround::8-11          1526      4.67%     98.23% # Writes before turning the bus around for reads
system.mem_ctrls1.wrPerTurnAround::12-15          310      0.95%     99.18% # Writes before turning the bus around for reads
system.mem_ctrls1.wrPerTurnAround::16-19          269      0.82%    100.00% # Writes before turning the bus around for reads
system.mem_ctrls1.wrPerTurnAround::total        32659                       # Writes before turning the bus around for reads
system.mem_ctrls1.totQLat                 11511557091                       # Total ticks spent queuing
system.mem_ctrls1.totMemAccLat            17576057091                       # Total ticks spent from burst creation until serviced by the DRAM
system.mem_ctrls1.totBusLat                1617200000                       # Total ticks spent in databus transfers
system.mem_ctrls1.avgQLat                    35591.01                       # Average queueing delay per DRAM burst
system.mem_ctrls1.avgBusLat                   5000.00                       # Average bus latency per DRAM burst
system.mem_ctrls1.avgMemAccLat               54341.01                       # Average memory access latency per DRAM burst
system.mem_ctrls1.avgRdBW                      221.41                       # Average DRAM read bandwidth in MiByte/s
system.mem_ctrls1.avgWrBW                      122.94                       # Average achieved write bandwidth in MiByte/s
system.mem_ctrls1.avgRdBWSys                   221.43                       # Average system read bandwidth in MiByte/s
system.mem_ctrls1.avgWrBWSys                   122.94                       # Average system write bandwidth in MiByte/s
system.mem_ctrls1.peakBW                     12800.00                       # Theoretical peak bandwidth in MiByte/s
system.mem_ctrls1.busUtil                        2.69                       # Data bus utilization in percentage
system.mem_ctrls1.busUtilRead                    1.73                       # Data bus utilization in percentage for reads
system.mem_ctrls1.busUtilWrite                   0.96                       # Data bus utilization in percentage for writes
system.mem_ctrls1.avgRdQLen                      1.18                       # Average read queue length when enqueuing
system.mem_ctrls1.avgWrQLen                      2.97                       # Average write queue length when enqueuing
system.mem_ctrls1.readRowHits                  244711                       # Number of row buffer hits during reads
system.mem_ctrls1.writeRowHits                 110390                       # Number of row buffer hits during writes
system.mem_ctrls1.readRowHitRate                75.66                       # Row buffer hit rate for reads
system.mem_ctrls1.writeRowHitRate               61.47                       # Row buffer hit rate for writes
system.mem_ctrls1.avgGap                    185843.39                       # Average gap between requests
system.mem_ctrls1.pageHitRate                   70.59                       # Row buffer hit rate, read and write combined
system.mem_ctrls1.memoryStateTime::IDLE   15398399000                       # Time in different power states
system.mem_ctrls1.memoryStateTime::REF     3121820000                       # Time in different power states
system.mem_ctrls1.memoryStateTime::PRE_PDN            0                       # Time in different power states
system.mem_ctrls1.memoryStateTime::ACT    74970147500                       # Time in different power states
system.mem_ctrls1.memoryStateTime::ACT_PDN            0                       # Time in different power states
system.mem_ctrls1.actEnergy::0              564792480                       # Energy for activate commands per rank (pJ)
system.mem_ctrls1.actEnergy::1              553505400                       # Energy for activate commands per rank (pJ)
system.mem_ctrls1.preEnergy::0              308170500                       # Energy for precharge commands per rank (pJ)
system.mem_ctrls1.preEnergy::1              302011875                       # Energy for precharge commands per rank (pJ)
system.mem_ctrls1.readEnergy::0            1267141200                       # Energy for read commands per rank (pJ)
system.mem_ctrls1.readEnergy::1            1255589400                       # Energy for read commands per rank (pJ)
system.mem_ctrls1.writeEnergy::0            583381440                       # Energy for write commands per rank (pJ)
system.mem_ctrls1.writeEnergy::1            580381200                       # Energy for write commands per rank (pJ)
system.mem_ctrls1.refreshEnergy::0         6106279920                       # Energy for refresh commands per rank (pJ)
system.mem_ctrls1.refreshEnergy::1         6106279920                       # Energy for refresh commands per rank (pJ)
system.mem_ctrls1.actBackEnergy::0        38489176755                       # Energy for active background per rank (pJ)
system.mem_ctrls1.actBackEnergy::1        37524923145                       # Energy for active background per rank (pJ)
system.mem_ctrls1.preBackEnergy::0        22331422500                       # Energy for precharge background per rank (pJ)
system.mem_ctrls1.preBackEnergy::1        23177259000                       # Energy for precharge background per rank (pJ)
system.mem_ctrls1.totalEnergy::0          69650364795                       # Total energy per rank (pJ)
system.mem_ctrls1.totalEnergy::1          69499949940                       # Total energy per rank (pJ)
system.mem_ctrls1.averagePower::0          745.005250                       # Core power per rank (mW)
system.mem_ctrls1.averagePower::1          743.396359                       # Core power per rank (mW)
system.mem_ctrls2.bytes_read::ruby.dir_cntrl2     20702592                       # Number of bytes read from this memory
system.mem_ctrls2.bytes_read::total          20702592                       # Number of bytes read from this memory
system.mem_ctrls2.bytes_written::ruby.dir_cntrl2     11493952                       # Number of bytes written to this memory
system.mem_ctrls2.bytes_written::total       11493952                       # Number of bytes written to this memory
system.mem_ctrls2.num_reads::ruby.dir_cntrl2       323478                       # Number of read requests responded to by this memory
system.mem_ctrls2.num_reads::total             323478                       # Number of read requests responded to by this memory
system.mem_ctrls2.num_writes::ruby.dir_cntrl2       179593                       # Number of write requests responded to by this memory
system.mem_ctrls2.num_writes::total            179593                       # Number of write requests responded to by this memory
system.mem_ctrls2.bw_read::ruby.dir_cntrl2    221436285                       # Total read bandwidth from this memory (bytes/s)
system.mem_ctrls2.bw_read::total            221436285                       # Total read bandwidth from this memory (bytes/s)
system.mem_ctrls2.bw_write::ruby.dir_cntrl2    122940066                       # Write bandwidth from this memory (bytes/s)
system.mem_ctrls2.bw_write::total           122940066                       # Write bandwidth from this memory (bytes/s)
system.mem_ctrls2.bw_total::ruby.dir_cntrl2    344376351                       # Total bandwidth to/from this memory (bytes/s)
system.mem_ctrls2.bw_total::total           344376351                       # Total bandwidth to/from this memory (bytes/s)
system.mem_ctrls2.readReqs                     323478                       # Number of read requests accepted
system.mem_ctrls2.writeReqs                    179593                       # Number of write requests accepted
system.mem_ctrls2.readBursts                   323478                       # Number of DRAM read bursts, including those serviced by the write queue
system.mem_ctrls2.writeBursts                  179593                       # Number of DRAM write bursts, including those merged in the write queue
system.mem_ctrls2.bytesReadDRAM              20701632                       # Total number of bytes read from DRAM
system.mem_ctrls2.bytesReadWrQ                    960                       # Total number of bytes read from write queue
system.mem_ctrls2.bytesWritten               11493824                       # Total number of bytes written to DRAM
system.mem_ctrls2.bytesReadSys               20702592                       # Total read bytes from the system interface side
system.mem_ctrls2.bytesWrittenSys            11493952                       # Total written bytes from the system interface side
system.mem_ctrls2.servicedByWrQ                    15                       # Number of DRAM read bursts serviced by the write queue
system.mem_ctrls2.mergedWrBursts                    0                       # Number of DRAM write bursts merged with an existing one
system.mem_ctrls2.neitherReadNorWriteReqs            0                       # Number of requests that are neither read nor write
system.mem_ctrls2.perBankRdBursts::0            19969                       # Per bank write bursts
system.mem_ctrls2.perBankRdBursts::1            20562                       # Per bank write bursts
system.mem_ctrls2.perBankRdBursts::2            20166                       # Per bank write bursts
system.mem_ctrls2.perBankRdBursts::3            20516                       # Per bank write bursts
system.mem_ctrls2.perBankRdBursts::4            20140                       # Per bank write bursts
system.mem_ctrls2.perBankRdBursts::5            20566                       # Per bank write bursts
system.mem_ctrls2.perBankRdBursts::6            20228                       # Per bank write bursts
system.mem_ctrls2.perBankRdBursts::7            20361                       # Per bank write bursts
system.mem_ctrls2.perBankRdBursts::8            20212                       # Per bank write bursts
system.mem_ctrls2.perBankRdBursts::9            20476                       # Per bank write bursts
system.mem_ctrls2.perBankRdBursts::10           20205                       # Per bank write bursts
system.mem_ctrls2.perBankRdBursts::11           20560                       # Per bank write bursts
system.mem_ctrls2.perBankRdBursts::12           19837                       # Per bank write bursts
system.mem_ctrls2.perBankRdBursts::13           19712                       # Per bank write bursts
system.mem_ctrls2.perBankRdBursts::14           19927                       # Per bank write bursts
system.mem_ctrls2.perBankRdBursts::15           20026                       # Per bank write bursts
system.mem_ctrls2.perBankWrBursts::0            11116                       # Per bank write bursts
system.mem_ctrls2.perBankWrBursts::1            11261                       # Per bank write bursts
system.mem_ctrls2.perBankWrBursts::2            11259                       # Per bank write bursts
system.mem_ctrls2.perBankWrBursts::3            11265                       # Per bank write bursts
system.mem_ctrls2.perBankWrBursts::4            11208                       # Per bank write bursts
system.mem_ctrls2.perBankWrBursts::5            11500                       # Per bank write bursts
system.mem_ctrls2.perBankWrBursts::6            11152                       # Per bank write bursts
system.mem_ctrls2.perBankWrBursts::7            11263                       # Per bank write bursts
system.mem_ctrls2.perBankWrBursts::8            11463                       # Per bank write bursts
system.mem_ctrls2.perBankWrBursts::9            11318                       # Per bank write bursts
system.mem_ctrls2.perBankWrBursts::10           11118                       # Per bank write bursts
system.mem_ctrls2.perBankWrBursts::11           11310                       # Per bank write bursts
system.mem_ctrls2.perBankWrBursts::12           10958                       # Per bank write bursts
system.mem_ctrls2.perBankWrBursts::13           10900                       # Per bank write bursts
system.mem_ctrls2.perBankWrBursts::14           11294                       # Per bank write bursts
system.mem_ctrls2.perBankWrBursts::15           11206                       # Per bank write bursts
system.mem_ctrls2.numRdRetry                     1851                       # Number of times read queue was full causing retry
system.mem_ctrls2.numWrRetry                     1519                       # Number of times write queue was full causing retry
system.mem_ctrls2.totGap                  93492178500                       # Total gap between requests
system.mem_ctrls2.readPktSize::0                    0                       # Read request sizes (log2)
system.mem_ctrls2.readPktSize::1                    0                       # Read request sizes (log2)
system.mem_ctrls2.readPktSize::2                    0                       # Read request sizes (log2)
system.mem_ctrls2.readPktSize::3                    0                       # Read request sizes (log2)
system.mem_ctrls2.readPktSize::4                    0                       # Read request sizes (log2)
system.mem_ctrls2.readPktSize::5                    0                       # Read request sizes (log2)
system.mem_ctrls2.readPktSize::6               323478                       # Read request sizes (log2)
system.mem_ctrls2.writePktSize::0                   0                       # Write request sizes (log2)
system.mem_ctrls2.writePktSize::1                   0                       # Write request sizes (log2)
system.mem_ctrls2.writePktSize::2                   0                       # Write request sizes (log2)
system.mem_ctrls2.writePktSize::3                   0                       # Write request sizes (log2)
system.mem_ctrls2.writePktSize::4                   0                       # Write request sizes (log2)
system.mem_ctrls2.writePktSize::5                   0                       # Write request sizes (log2)
system.mem_ctrls2.writePktSize::6              179593                       # Write request sizes (log2)
system.mem_ctrls2.rdQLenPdf::0                 157919                       # What read queue length does an incoming req see
system.mem_ctrls2.rdQLenPdf::1                  40094                       # What read queue length does an incoming req see
system.mem_ctrls2.rdQLenPdf::2                  30682                       # What read queue length does an incoming req see
system.mem_ctrls2.rdQLenPdf::3                  22341                       # What read queue length does an incoming req see
system.mem_ctrls2.rdQLenPdf::4                  16045                       # What read queue length does an incoming req see
system.mem_ctrls2.rdQLenPdf::5                  11867                       # What read queue length does an incoming req see
system.mem_ctrls2.rdQLenPdf::6                   9070                       # What read queue length does an incoming req see
system.mem_ctrls2.rdQLenPdf::7                   6966                       # What read queue length does an incoming req see
system.mem_ctrls2.rdQLenPdf::8                   5377                       # What read queue length does an incoming req see
system.mem_ctrls2.rdQLenPdf::9                   4126                       # What read queue length does an incoming req see
system.mem_ctrls2.rdQLenPdf::10                  3295                       # What read queue length does an incoming req see
system.mem_ctrls2.rdQLenPdf::11                  2568                       # What read queue length does an incoming req see
system.mem_ctrls2.rdQLenPdf::12                  2025                       # What read queue length does an incoming req see
system.mem_ctrls2.rdQLenPdf::13                  1563                       # What read queue length does an incoming req see
system.mem_ctrls2.rdQLenPdf::14                  1213                       # What read queue length does an incoming req see
system.mem_ctrls2.rdQLenPdf::15                   980                       # What read queue length does an incoming req see
system.mem_ctrls2.rdQLenPdf::16                   805                       # What read queue length does an incoming req see
system.mem_ctrls2.rdQLenPdf::17                   656                       # What read queue length does an incoming req see
system.mem_ctrls2.rdQLenPdf::18                   561                       # What read queue length does an incoming req see
system.mem_ctrls2.rdQLenPdf::19                   490                       # What read queue length does an incoming req see
system.mem_ctrls2.rdQLenPdf::20                   439                       # What read queue length does an incoming req see
system.mem_ctrls2.rdQLenPdf::21                   377                       # What read queue length does an incoming req see
system.mem_ctrls2.rdQLenPdf::22                   296                       # What read queue length does an incoming req see
system.mem_ctrls2.rdQLenPdf::23                   275                       # What read queue length does an incoming req see
system.mem_ctrls2.rdQLenPdf::24                   232                       # What read queue length does an incoming req see
system.mem_ctrls2.rdQLenPdf::25                   202                       # What read queue length does an incoming req see
system.mem_ctrls2.rdQLenPdf::26                   199                       # What read queue length does an incoming req see
system.mem_ctrls2.rdQLenPdf::27                   174                       # What read queue length does an incoming req see
system.mem_ctrls2.rdQLenPdf::28                   153                       # What read queue length does an incoming req see
system.mem_ctrls2.rdQLenPdf::29                   173                       # What read queue length does an incoming req see
system.mem_ctrls2.rdQLenPdf::30                   173                       # What read queue length does an incoming req see
system.mem_ctrls2.rdQLenPdf::31                  2127                       # What read queue length does an incoming req see
system.mem_ctrls2.wrQLenPdf::0                  32473                       # What write queue length does an incoming req see
system.mem_ctrls2.wrQLenPdf::1                  34519                       # What write queue length does an incoming req see
system.mem_ctrls2.wrQLenPdf::2                  35039                       # What write queue length does an incoming req see
system.mem_ctrls2.wrQLenPdf::3                  34964                       # What write queue length does an incoming req see
system.mem_ctrls2.wrQLenPdf::4                  34666                       # What write queue length does an incoming req see
system.mem_ctrls2.wrQLenPdf::5                   3014                       # What write queue length does an incoming req see
system.mem_ctrls2.wrQLenPdf::6                   2083                       # What write queue length does an incoming req see
system.mem_ctrls2.wrQLenPdf::7                   2835                       # What write queue length does an incoming req see
system.mem_ctrls2.bytesPerActivate::samples       147190                       # Bytes accessed per row activation
system.mem_ctrls2.bytesPerActivate::mean   218.731381                       # Bytes accessed per row activation
system.mem_ctrls2.bytesPerActivate::gmean   163.761651                       # Bytes accessed per row activation
system.mem_ctrls2.bytesPerActivate::stdev   180.635988                       # Bytes accessed per row activation
system.mem_ctrls2.bytesPerActivate::0-127        45518     30.92%     30.92% # Bytes accessed per row activation
system.mem_ctrls2.bytesPerActivate::128-255        41601     28.26%     59.19% # Bytes accessed per row activation
system.mem_ctrls2.bytesPerActivate::256-383        43405     29.49%     88.68% # Bytes accessed per row activation
system.mem_ctrls2.bytesPerActivate::384-511         6461      4.39%     93.07% # Bytes accessed per row activation
system.mem_ctrls2.bytesPerActivate::512-639         3898      2.65%     95.72% # Bytes accessed per row activation
system.mem_ctrls2.bytesPerActivate::640-767         2196      1.49%     97.21% # Bytes accessed per row activation
system.mem_ctrls2.bytesPerActivate::768-895         1332      0.90%     98.11% # Bytes accessed per row activation
system.mem_ctrls2.bytesPerActivate::896-1023          943      0.64%     98.75% # Bytes accessed per row activation
system.mem_ctrls2.bytesPerActivate::1024-1151         1836      1.25%    100.00% # Bytes accessed per row activation
system.mem_ctrls2.bytesPerActivate::total       147190                       # Bytes accessed per row activation
system.mem_ctrls2.rdPerTurnAround::samples        32672                       # Reads before turning the bus around for writes
system.mem_ctrls2.rdPerTurnAround::mean      9.899547                       # Reads before turning the bus around for writes
system.mem_ctrls2.rdPerTurnAround::stdev    19.744595                       # Reads before turning the bus around for writes
system.mem_ctrls2.rdPerTurnAround::0-127        32667     99.98%     99.98% # Reads before turning the bus around for writes
system.mem_ctrls2.rdPerTurnAround::128-255            3      0.01%     99.99% # Reads before turning the bus around for writes
system.mem_ctrls2.rdPerTurnAround::1152-1279            1      0.00%    100.00% # Reads before turning the bus around for writes
system.mem_ctrls2.rdPerTurnAround::2816-2943            1      0.00%    100.00% # Reads before turning the bus around for writes
system.mem_ctrls2.rdPerTurnAround::total        32672                       # Reads before turning the bus around for writes
system.mem_ctrls2.wrPerTurnAround::samples        32672                       # Writes before turning the bus around for reads
system.mem_ctrls2.wrPerTurnAround::mean      5.496786                       # Writes before turning the bus around for reads
system.mem_ctrls2.wrPerTurnAround::gmean     5.370181                       # Writes before turning the bus around for reads
system.mem_ctrls2.wrPerTurnAround::stdev     1.522662                       # Writes before turning the bus around for reads
system.mem_ctrls2.wrPerTurnAround::4-7          30588     93.62%     93.62% # Writes before turning the bus around for reads
system.mem_ctrls2.wrPerTurnAround::8-11          1547      4.73%     98.36% # Writes before turning the bus around for reads
system.mem_ctrls2.wrPerTurnAround::12-15          282      0.86%     99.22% # Writes before turning the bus around for reads
system.mem_ctrls2.wrPerTurnAround::16-19          255      0.78%    100.00% # Writes before turning the bus around for reads
system.mem_ctrls2.wrPerTurnAround::total        32672                       # Writes before turning the bus around for reads
system.mem_ctrls2.totQLat                 11589950927                       # Total ticks spent queuing
system.mem_ctrls2.totMemAccLat            17654882177                       # Total ticks spent from burst creation until serviced by the DRAM
system.mem_ctrls2.totBusLat                1617315000                       # Total ticks spent in databus transfers
system.mem_ctrls2.avgQLat                    35830.84                       # Average queueing delay per DRAM burst
system.mem_ctrls2.avgBusLat                   5000.00                       # Average bus latency per DRAM burst
system.mem_ctrls2.avgMemAccLat               54580.84                       # Average memory access latency per DRAM burst
system.mem_ctrls2.avgRdBW                      221.43                       # Average DRAM read bandwidth in MiByte/s
system.mem_ctrls2.avgWrBW                      122.94                       # Average achieved write bandwidth in MiByte/s
system.mem_ctrls2.avgRdBWSys                   221.44                       # Average system read bandwidth in MiByte/s
system.mem_ctrls2.avgWrBWSys                   122.94                       # Average system write bandwidth in MiByte/s
system.mem_ctrls2.peakBW                     12800.00                       # Theoretical peak bandwidth in MiByte/s
system.mem_ctrls2.busUtil                        2.69                       # Data bus utilization in percentage
system.mem_ctrls2.busUtilRead                    1.73                       # Data bus utilization in percentage for reads
system.mem_ctrls2.busUtilWrite                   0.96                       # Data bus utilization in percentage for writes
system.mem_ctrls2.avgRdQLen                      1.18                       # Average read queue length when enqueuing
system.mem_ctrls2.avgWrQLen                      2.97                       # Average write queue length when enqueuing
system.mem_ctrls2.readRowHits                  245011                       # Number of row buffer hits during reads
system.mem_ctrls2.writeRowHits                 110848                       # Number of row buffer hits during writes
system.mem_ctrls2.readRowHitRate                75.75                       # Row buffer hit rate for reads
system.mem_ctrls2.writeRowHitRate               61.72                       # Row buffer hit rate for writes
system.mem_ctrls2.avgGap                    185842.91                       # Average gap between requests
system.mem_ctrls2.pageHitRate                   70.74                       # Row buffer hit rate, read and write combined
system.mem_ctrls2.memoryStateTime::IDLE   15446372750                       # Time in different power states
system.mem_ctrls2.memoryStateTime::REF     3121820000                       # Time in different power states
system.mem_ctrls2.memoryStateTime::PRE_PDN            0                       # Time in different power states
system.mem_ctrls2.memoryStateTime::ACT    74921584750                       # Time in different power states
system.mem_ctrls2.memoryStateTime::ACT_PDN            0                       # Time in different power states
system.mem_ctrls2.actEnergy::0              561473640                       # Energy for activate commands per rank (pJ)
system.mem_ctrls2.actEnergy::1              551267640                       # Energy for activate commands per rank (pJ)
system.mem_ctrls2.preEnergy::0              306359625                       # Energy for precharge commands per rank (pJ)
system.mem_ctrls2.preEnergy::1              300790875                       # Energy for precharge commands per rank (pJ)
system.mem_ctrls2.readEnergy::0            1267507800                       # Energy for read commands per rank (pJ)
system.mem_ctrls2.readEnergy::1            1255433400                       # Energy for read commands per rank (pJ)
system.mem_ctrls2.writeEnergy::0            583355520                       # Energy for write commands per rank (pJ)
system.mem_ctrls2.writeEnergy::1            580394160                       # Energy for write commands per rank (pJ)
system.mem_ctrls2.refreshEnergy::0         6106279920                       # Energy for refresh commands per rank (pJ)
system.mem_ctrls2.refreshEnergy::1         6106279920                       # Energy for refresh commands per rank (pJ)
system.mem_ctrls2.actBackEnergy::0        38375584875                       # Energy for active background per rank (pJ)
system.mem_ctrls2.actBackEnergy::1        37458275040                       # Energy for active background per rank (pJ)
system.mem_ctrls2.preBackEnergy::0        22431064500                       # Energy for precharge background per rank (pJ)
system.mem_ctrls2.preBackEnergy::1        23235722250                       # Energy for precharge background per rank (pJ)
system.mem_ctrls2.totalEnergy::0          69631625880                       # Total energy per rank (pJ)
system.mem_ctrls2.totalEnergy::1          69488163285                       # Total energy per rank (pJ)
system.mem_ctrls2.averagePower::0          744.804812                       # Core power per rank (mW)
system.mem_ctrls2.averagePower::1          743.270284                       # Core power per rank (mW)
system.mem_ctrls3.bytes_read::ruby.dir_cntrl3     20680128                       # Number of bytes read from this memory
system.mem_ctrls3.bytes_read::total          20680128                       # Number of bytes read from this memory
system.mem_ctrls3.bytes_written::ruby.dir_cntrl3     11490688                       # Number of bytes written to this memory
system.mem_ctrls3.bytes_written::total       11490688                       # Number of bytes written to this memory
system.mem_ctrls3.num_reads::ruby.dir_cntrl3       323127                       # Number of read requests responded to by this memory
system.mem_ctrls3.num_reads::total             323127                       # Number of read requests responded to by this memory
system.mem_ctrls3.num_writes::ruby.dir_cntrl3       179542                       # Number of write requests responded to by this memory
system.mem_ctrls3.num_writes::total            179542                       # Number of write requests responded to by this memory
system.mem_ctrls3.bw_read::ruby.dir_cntrl3    221196008                       # Total read bandwidth from this memory (bytes/s)
system.mem_ctrls3.bw_read::total            221196008                       # Total read bandwidth from this memory (bytes/s)
system.mem_ctrls3.bw_write::ruby.dir_cntrl3    122905154                       # Write bandwidth from this memory (bytes/s)
system.mem_ctrls3.bw_write::total           122905154                       # Write bandwidth from this memory (bytes/s)
system.mem_ctrls3.bw_total::ruby.dir_cntrl3    344101163                       # Total bandwidth to/from this memory (bytes/s)
system.mem_ctrls3.bw_total::total           344101163                       # Total bandwidth to/from this memory (bytes/s)
system.mem_ctrls3.readReqs                     323128                       # Number of read requests accepted
system.mem_ctrls3.writeReqs                    179542                       # Number of write requests accepted
system.mem_ctrls3.readBursts                   323128                       # Number of DRAM read bursts, including those serviced by the write queue
system.mem_ctrls3.writeBursts                  179542                       # Number of DRAM write bursts, including those merged in the write queue
system.mem_ctrls3.bytesReadDRAM              20679488                       # Total number of bytes read from DRAM
system.mem_ctrls3.bytesReadWrQ                    704                       # Total number of bytes read from write queue
system.mem_ctrls3.bytesWritten               11490624                       # Total number of bytes written to DRAM
system.mem_ctrls3.bytesReadSys               20680192                       # Total read bytes from the system interface side
system.mem_ctrls3.bytesWrittenSys            11490688                       # Total written bytes from the system interface side
system.mem_ctrls3.servicedByWrQ                    11                       # Number of DRAM read bursts serviced by the write queue
system.mem_ctrls3.mergedWrBursts                    0                       # Number of DRAM write bursts merged with an existing one
system.mem_ctrls3.neitherReadNorWriteReqs            0                       # Number of requests that are neither read nor write
system.mem_ctrls3.perBankRdBursts::0            19951                       # Per bank write bursts
system.mem_ctrls3.perBankRdBursts::1            20567                       # Per bank write bursts
system.mem_ctrls3.perBankRdBursts::2            20041                       # Per bank write bursts
system.mem_ctrls3.perBankRdBursts::3            20474                       # Per bank write bursts
system.mem_ctrls3.perBankRdBursts::4            20079                       # Per bank write bursts
system.mem_ctrls3.perBankRdBursts::5            20555                       # Per bank write bursts
system.mem_ctrls3.perBankRdBursts::6            20235                       # Per bank write bursts
system.mem_ctrls3.perBankRdBursts::7            20360                       # Per bank write bursts
system.mem_ctrls3.perBankRdBursts::8            20205                       # Per bank write bursts
system.mem_ctrls3.perBankRdBursts::9            20447                       # Per bank write bursts
system.mem_ctrls3.perBankRdBursts::10           20227                       # Per bank write bursts
system.mem_ctrls3.perBankRdBursts::11           20502                       # Per bank write bursts
system.mem_ctrls3.perBankRdBursts::12           19802                       # Per bank write bursts
system.mem_ctrls3.perBankRdBursts::13           19694                       # Per bank write bursts
system.mem_ctrls3.perBankRdBursts::14           19961                       # Per bank write bursts
system.mem_ctrls3.perBankRdBursts::15           20017                       # Per bank write bursts
system.mem_ctrls3.perBankWrBursts::0            11106                       # Per bank write bursts
system.mem_ctrls3.perBankWrBursts::1            11259                       # Per bank write bursts
system.mem_ctrls3.perBankWrBursts::2            11263                       # Per bank write bursts
system.mem_ctrls3.perBankWrBursts::3            11243                       # Per bank write bursts
system.mem_ctrls3.perBankWrBursts::4            11204                       # Per bank write bursts
system.mem_ctrls3.perBankWrBursts::5            11505                       # Per bank write bursts
system.mem_ctrls3.perBankWrBursts::6            11146                       # Per bank write bursts
system.mem_ctrls3.perBankWrBursts::7            11261                       # Per bank write bursts
system.mem_ctrls3.perBankWrBursts::8            11457                       # Per bank write bursts
system.mem_ctrls3.perBankWrBursts::9            11321                       # Per bank write bursts
system.mem_ctrls3.perBankWrBursts::10           11117                       # Per bank write bursts
system.mem_ctrls3.perBankWrBursts::11           11310                       # Per bank write bursts
system.mem_ctrls3.perBankWrBursts::12           10958                       # Per bank write bursts
system.mem_ctrls3.perBankWrBursts::13           10905                       # Per bank write bursts
system.mem_ctrls3.perBankWrBursts::14           11295                       # Per bank write bursts
system.mem_ctrls3.perBankWrBursts::15           11191                       # Per bank write bursts
system.mem_ctrls3.numRdRetry                     1946                       # Number of times read queue was full causing retry
system.mem_ctrls3.numWrRetry                     1477                       # Number of times write queue was full causing retry
system.mem_ctrls3.totGap                  93491578500                       # Total gap between requests
system.mem_ctrls3.readPktSize::0                    0                       # Read request sizes (log2)
system.mem_ctrls3.readPktSize::1                    0                       # Read request sizes (log2)
system.mem_ctrls3.readPktSize::2                    0                       # Read request sizes (log2)
system.mem_ctrls3.readPktSize::3                    0                       # Read request sizes (log2)
system.mem_ctrls3.readPktSize::4                    0                       # Read request sizes (log2)
system.mem_ctrls3.readPktSize::5                    0                       # Read request sizes (log2)
system.mem_ctrls3.readPktSize::6               323128                       # Read request sizes (log2)
system.mem_ctrls3.writePktSize::0                   0                       # Write request sizes (log2)
system.mem_ctrls3.writePktSize::1                   0                       # Write request sizes (log2)
system.mem_ctrls3.writePktSize::2                   0                       # Write request sizes (log2)
system.mem_ctrls3.writePktSize::3                   0                       # Write request sizes (log2)
system.mem_ctrls3.writePktSize::4                   0                       # Write request sizes (log2)
system.mem_ctrls3.writePktSize::5                   0                       # Write request sizes (log2)
system.mem_ctrls3.writePktSize::6              179542                       # Write request sizes (log2)
system.mem_ctrls3.rdQLenPdf::0                 158111                       # What read queue length does an incoming req see
system.mem_ctrls3.rdQLenPdf::1                  40383                       # What read queue length does an incoming req see
system.mem_ctrls3.rdQLenPdf::2                  30631                       # What read queue length does an incoming req see
system.mem_ctrls3.rdQLenPdf::3                  22237                       # What read queue length does an incoming req see
system.mem_ctrls3.rdQLenPdf::4                  15942                       # What read queue length does an incoming req see
system.mem_ctrls3.rdQLenPdf::5                  11876                       # What read queue length does an incoming req see
system.mem_ctrls3.rdQLenPdf::6                   8977                       # What read queue length does an incoming req see
system.mem_ctrls3.rdQLenPdf::7                   6820                       # What read queue length does an incoming req see
system.mem_ctrls3.rdQLenPdf::8                   5102                       # What read queue length does an incoming req see
system.mem_ctrls3.rdQLenPdf::9                   4002                       # What read queue length does an incoming req see
system.mem_ctrls3.rdQLenPdf::10                  3116                       # What read queue length does an incoming req see
system.mem_ctrls3.rdQLenPdf::11                  2468                       # What read queue length does an incoming req see
system.mem_ctrls3.rdQLenPdf::12                  1922                       # What read queue length does an incoming req see
system.mem_ctrls3.rdQLenPdf::13                  1539                       # What read queue length does an incoming req see
system.mem_ctrls3.rdQLenPdf::14                  1245                       # What read queue length does an incoming req see
system.mem_ctrls3.rdQLenPdf::15                  1005                       # What read queue length does an incoming req see
system.mem_ctrls3.rdQLenPdf::16                   833                       # What read queue length does an incoming req see
system.mem_ctrls3.rdQLenPdf::17                   716                       # What read queue length does an incoming req see
system.mem_ctrls3.rdQLenPdf::18                   596                       # What read queue length does an incoming req see
system.mem_ctrls3.rdQLenPdf::19                   485                       # What read queue length does an incoming req see
system.mem_ctrls3.rdQLenPdf::20                   411                       # What read queue length does an incoming req see
system.mem_ctrls3.rdQLenPdf::21                   371                       # What read queue length does an incoming req see
system.mem_ctrls3.rdQLenPdf::22                   302                       # What read queue length does an incoming req see
system.mem_ctrls3.rdQLenPdf::23                   276                       # What read queue length does an incoming req see
system.mem_ctrls3.rdQLenPdf::24                   265                       # What read queue length does an incoming req see
[...]
system.ruby.L2Cache_Controller.MT_MB.L1_GETS::total          608                      
system.ruby.L2Cache_Controller.MT_MB.L1_PUTX |           2      3.39%      3.39% |           1      1.69%      5.08% |           3      5.08%     10.17% |           2      3.39%     13.56% |           2      3.39%     16.95% |           1      1.69%     18.64% |           1      1.69%     20.34% |           0      0.00%     20.34% |           6     10.17%     30.51% |           3      5.08%     35.59% |           2      3.39%     38.98% |           2      3.39%     42.37% |           1      1.69%     44.07% |           1      1.69%     45.76% |           3      5.08%     50.85% |           2      3.39%     54.24% |           5      8.47%     62.71% |           3      5.08%     67.80% |           0      0.00%     67.80% |           2      3.39%     71.19% |           2      3.39%     74.58% |           1      1.69%     76.27% |           2      3.39%     79.66% |           1      1.69%     81.36% |           3      5.08%     86.44% |           2      3.39%     89.83% |           1      1.69%     91.53% |           2      3.39%     94.92% |           1      1.69%     96.61% |           0      0.00%     96.61% |           2      3.39%    100.00% |           0      0.00%    100.00%
system.ruby.L2Cache_Controller.MT_MB.L1_PUTX::total           59                      
system.ruby.L2Cache_Controller.MT_MB.Exclusive_Unblock |      153256      5.68%      5.68% |       83189      3.08%      8.76% |       81853      3.03%     11.80% |       82786      3.07%     14.86% |       81733      3.03%     17.89% |       81169      3.01%     20.90% |       81384      3.02%     23.92% |       81222      3.01%     26.93% |       81535      3.02%     29.95% |       82471      3.06%     33.00% |       83528      3.10%     36.10% |       82854      3.07%     39.17% |       82145      3.04%     42.21% |       81009      3.00%     45.22% |       80448      2.98%     48.20% |       80919      3.00%     51.20% |       81985      3.04%     54.23% |       81550      3.02%     57.26% |       82161      3.04%     60.30% |       82227      3.05%     63.35% |       82053      3.04%     66.39% |       84390      3.13%     69.52% |       82323      3.05%     72.57% |       81481      3.02%     75.59% |       81507      3.02%     78.61% |       82018      3.04%     81.65% |       81767      3.03%     84.68% |       81306      3.01%     87.69% |       81776      3.03%     90.72% |       81093      3.01%     93.73% |       83838      3.11%     96.83% |       85451      3.17%    100.00%
system.ruby.L2Cache_Controller.MT_MB.Exclusive_Unblock::total      2698427                      
system.ruby.L2Cache_Controller.MT_IIB.L1_GETS |           0      0.00%      0.00% |           0      0.00%      0.00% |           0      0.00%      0.00% |           0      0.00%      0.00% |           0      0.00%      0.00% |           1     20.00%     20.00% |           0      0.00%     20.00% |           0      0.00%     20.00% |           0      0.00%     20.00% |           0      0.00%     20.00% |           0      0.00%     20.00% |           0      0.00%     20.00% |           0      0.00%     20.00% |           1     20.00%     40.00% |           0      0.00%     40.00% |           0      0.00%     40.00% |           0      0.00%     40.00% |           1     20.00%     60.00% |           1     20.00%     80.00% |           0      0.00%     80.00% |           0      0.00%     80.00% |           0      0.00%     80.00% |           0      0.00%     80.00% |           0      0.00%     80.00% |           0      0.00%     80.00% |           0      0.00%     80.00% |           0      0.00%     80.00% |           0      0.00%     80.00% |           0      0.00%     80.00% |           0      0.00%     80.00% |           1     20.00%    100.00% |           0      0.00%    100.00%
system.ruby.L2Cache_Controller.MT_IIB.L1_GETS::total            5                      
system.ruby.L2Cache_Controller.MT_IIB.L1_PUTX |           7      2.05%      2.05% |           9      2.63%      4.68% |           5      1.46%      6.14% |           8      2.34%      8.48% |           7      2.05%     10.53% |          11      3.22%     13.74% |          13      3.80%     17.54% |           4      1.17%     18.71% |          10      2.92%     21.64% |          11      3.22%     24.85% |           6      1.75%     26.61% |          15      4.39%     30.99% |           8      2.34%     33.33% |          15      4.39%     37.72% |          17      4.97%     42.69% |          11      3.22%     45.91% |           9      2.63%     48.54% |           8      2.34%     50.88% |          12      3.51%     54.39% |           8      2.34%     56.73% |          16      4.68%     61.40% |          13      3.80%     65.20% |          16      4.68%     69.88% |          17      4.97%     74.85% |          10      2.92%     77.78% |          11      3.22%     80.99% |          19      5.56%     86.55% |          10      2.92%     89.47% |           7      2.05%     91.52% |          11      3.22%     94.74% |          10      2.92%     97.66% |           8      2.34%    100.00%
system.ruby.L2Cache_Controller.MT_IIB.L1_PUTX::total          342                      
system.ruby.L2Cache_Controller.MT_IIB.WB_Data |           0      0.00%      0.00% |           0      0.00%      0.00% |           0      0.00%      0.00% |           0      0.00%      0.00% |           0      0.00%      0.00% |           0      0.00%      0.00% |           0      0.00%      0.00% |           0      0.00%      0.00% |           0      0.00%      0.00% |           0      0.00%      0.00% |           0      0.00%      0.00% |           0      0.00%      0.00% |           0      0.00%      0.00% |           0      0.00%      0.00% |           0      0.00%      0.00% |           0      0.00%      0.00% |           0      0.00%      0.00% |           0      0.00%      0.00% |           0      0.00%      0.00% |           0      0.00%      0.00% |           0      0.00%      0.00% |           0      0.00%      0.00% |           0      0.00%      0.00% |           0      0.00%      0.00% |           0      0.00%      0.00% |           2    100.00%    100.00% |           0      0.00%    100.00% |           0      0.00%    100.00% |           0      0.00%    100.00% |           0      0.00%    100.00% |           0      0.00%    100.00% |           0      0.00%    100.00%
system.ruby.L2Cache_Controller.MT_IIB.WB_Data::total            2                      
system.ruby.L2Cache_Controller.MT_IIB.WB_Data_clean |        1872      3.14%      3.14% |        1856      3.11%      6.25% |        1862      3.12%      9.37% |        1864      3.12%     12.49% |        1852      3.10%     15.60% |        1886      3.16%     18.76% |        1902      3.19%     21.95% |        1836      3.08%     25.02% |        1808      3.03%     28.05% |        1842      3.09%     31.14% |        1872      3.14%     34.28% |        1880      3.15%     37.43% |        1936      3.24%     40.68% |        1864      3.12%     43.80% |        1911      3.20%     47.00% |        1904      3.19%     50.19% |        1907      3.20%     53.39% |        1851      3.10%     56.49% |        1876      3.14%     59.64% |        1902      3.19%     62.82% |        1872      3.14%     65.96% |        1812      3.04%     69.00% |        1853      3.11%     72.10% |        1866      3.13%     75.23% |        1883      3.16%     78.39% |        1858      3.11%     81.50% |        1831      3.07%     84.57% |        1840      3.08%     87.66% |        1831      3.07%     90.72% |        1841      3.09%     93.81% |        1870      3.13%     96.94% |        1823      3.06%    100.00%
system.ruby.L2Cache_Controller.MT_IIB.WB_Data_clean::total        59663                      
system.ruby.L2Cache_Controller.MT_IIB.Unblock |          20      1.08%      1.08% |          24      1.29%      2.37% |          59      3.17%      5.54% |          42      2.26%      7.80% |          47      2.53%     10.33% |          64      3.44%     13.77% |          58      3.12%     16.89% |          47      2.53%     19.42% |          99      5.33%     24.74% |          71      3.82%     28.56% |          70      3.77%     32.33% |          62      3.34%     35.66% |          37      1.99%     37.65% |          80      4.30%     41.96% |          52      2.80%     44.76% |          35      1.88%     46.64% |          48      2.58%     49.22% |          78      4.20%     53.42% |          60      3.23%     56.64% |          61      3.28%     59.92% |          78      4.20%     64.12% |          87      4.68%     68.80% |          74      3.98%     72.78% |          53      2.85%     75.63% |          55      2.96%     78.59% |          53      2.85%     81.44% |          63      3.39%     84.83% |          67      3.60%     88.43% |          50      2.69%     91.12% |          67      3.60%     94.73% |          40      2.15%     96.88% |          58      3.12%    100.00%
system.ruby.L2Cache_Controller.MT_IIB.Unblock::total         1859                      
system.ruby.L2Cache_Controller.MT_IB.WB_Data_clean |          20      1.08%      1.08% |          24      1.29%      2.37% |          59      3.17%      5.54% |          42      2.26%      7.80% |          47      2.53%     10.33% |          64      3.44%     13.77% |          58      3.12%     16.89% |          47      2.53%     19.42% |          99      5.33%     24.74% |          71      3.82%     28.56% |          70      3.77%     32.33% |          62      3.34%     35.66% |          37      1.99%     37.65% |          80      4.30%     41.96% |          52      2.80%     44.76% |          35      1.88%     46.64% |          48      2.58%     49.22% |          78      4.20%     53.42% |          60      3.23%     56.64% |          61      3.28%     59.92% |          78      4.20%     64.12% |          87      4.68%     68.80% |          74      3.98%     72.78% |          53      2.85%     75.63% |          55      2.96%     78.59% |          53      2.85%     81.44% |          63      3.39%     84.83% |          67      3.60%     88.43% |          50      2.69%     91.12% |          67      3.60%     94.73% |          40      2.15%     96.88% |          58      3.12%    100.00%
system.ruby.L2Cache_Controller.MT_IB.WB_Data_clean::total         1859                      
system.ruby.L2Cache_Controller.MT_SB.L1_GETS |           1     50.00%     50.00% |           0      0.00%     50.00% |           0      0.00%     50.00% |           0      0.00%     50.00% |           0      0.00%     50.00% |           0      0.00%     50.00% |           0      0.00%     50.00% |           0      0.00%     50.00% |           0      0.00%     50.00% |           0      0.00%     50.00% |           0      0.00%     50.00% |           0      0.00%     50.00% |           0      0.00%     50.00% |           0      0.00%     50.00% |           0      0.00%     50.00% |           0      0.00%     50.00% |           0      0.00%     50.00% |           0      0.00%     50.00% |           0      0.00%     50.00% |           0      0.00%     50.00% |           0      0.00%     50.00% |           0      0.00%     50.00% |           0      0.00%     50.00% |           0      0.00%     50.00% |           0      0.00%     50.00% |           0      0.00%     50.00% |           0      0.00%     50.00% |           0      0.00%     50.00% |           0      0.00%     50.00% |           1     50.00%    100.00% |           0      0.00%    100.00% |           0      0.00%    100.00%
system.ruby.L2Cache_Controller.MT_SB.L1_GETS::total            2                      
system.ruby.L2Cache_Controller.MT_SB.L1_PUTX |           3     25.00%     25.00% |           0      0.00%     25.00% |           0      0.00%     25.00% |           0      0.00%     25.00% |           0      0.00%     25.00% |           0      0.00%     25.00% |           0      0.00%     25.00% |           0      0.00%     25.00% |           0      0.00%     25.00% |           1      8.33%     33.33% |           0      0.00%     33.33% |           1      8.33%     41.67% |           1      8.33%     50.00% |           0      0.00%     50.00% |           1      8.33%     58.33% |           0      0.00%     58.33% |           1      8.33%     66.67% |           1      8.33%     75.00% |           0      0.00%     75.00% |           0      0.00%     75.00% |           0      0.00%     75.00% |           0      0.00%     75.00% |           1      8.33%     83.33% |           1      8.33%     91.67% |           0      0.00%     91.67% |           0      0.00%     91.67% |           0      0.00%     91.67% |           0      0.00%     91.67% |           1      8.33%    100.00% |           0      0.00%    100.00% |           0      0.00%    100.00% |           0      0.00%    100.00%
system.ruby.L2Cache_Controller.MT_SB.L1_PUTX::total           12                      
system.ruby.L2Cache_Controller.MT_SB.Unblock |        1872      3.14%      3.14% |        1856      3.11%      6.25% |        1862      3.12%      9.37% |        1864      3.12%     12.49% |        1852      3.10%     15.60% |        1886      3.16%     18.76% |        1902      3.19%     21.95% |        1836      3.08%     25.02% |        1808      3.03%     28.05% |        1842      3.09%     31.14% |        1872      3.14%     34.28% |        1880      3.15%     37.43% |        1936      3.24%     40.67% |        1864      3.12%     43.80% |        1911      3.20%     47.00% |        1904      3.19%     50.19% |        1907      3.20%     53.39% |        1851      3.10%     56.49% |        1876      3.14%     59.63% |        1902      3.19%     62.82% |        1872      3.14%     65.96% |        1812      3.04%     69.00% |        1853      3.11%     72.10% |        1866      3.13%     75.23% |        1883      3.16%     78.39% |        1860      3.12%     81.50% |        1831      3.07%     84.57% |        1840      3.08%     87.66% |        1831      3.07%     90.72% |        1841      3.09%     93.81% |        1870      3.13%     96.94% |        1823      3.06%    100.00%
system.ruby.L2Cache_Controller.MT_SB.Unblock::total        59665                      
system.ruby.SimicsNetworkPortInterface_Controller.MessageSend |      523021     19.43%     19.43% |     1346228     50.00%     69.43% |      104055      3.86%     73.29% |      108930      4.05%     77.34% |       98315      3.65%     80.99% |      109237      4.06%     85.04% |      101308      3.76%     88.81% |      103726      3.85%     92.66% |       98312      3.65%     96.31% |       99324      3.69%    100.00% |           0      0.00%    100.00% |           0      0.00%    100.00% |           0      0.00%    100.00% |           0      0.00%    100.00% |           0      0.00%    100.00% |           0      0.00%    100.00% |           0      0.00%    100.00% |           0      0.00%    100.00% |           0      0.00%    100.00% |           0      0.00%    100.00% |           0      0.00%    100.00% |           0      0.00%    100.00% |           0      0.00%    100.00% |           0      0.00%    100.00% |           0      0.00%    100.00% |           0      0.00%    100.00% |           0      0.00%    100.00% |           0      0.00%    100.00% |           0      0.00%    100.00% |           0      0.00%    100.00% |           0      0.00%    100.00% |           0      0.00%    100.00%
system.ruby.SimicsNetworkPortInterface_Controller.MessageSend::total      2692456                      
system.ruby.SimicsNetworkPortInterface_Controller.MessageRecv |      523021     19.43%     19.43% |     1346228     50.00%     69.43% |      104055      3.86%     73.29% |      108930      4.05%     77.34% |       98315      3.65%     80.99% |      109237      4.06%     85.04% |      101308      3.76%     88.81% |      103726      3.85%     92.66% |       98312      3.65%     96.31% |       99324      3.69%    100.00% |           0      0.00%    100.00% |           0      0.00%    100.00% |           0      0.00%    100.00% |           0      0.00%    100.00% |           0      0.00%    100.00% |           0      0.00%    100.00% |           0      0.00%    100.00% |           0      0.00%    100.00% |           0      0.00%    100.00% |           0      0.00%    100.00% |           0      0.00%    100.00% |           0      0.00%    100.00% |           0      0.00%    100.00% |           0      0.00%    100.00% |           0      0.00%    100.00% |           0      0.00%    100.00% |           0      0.00%    100.00% |           0      0.00%    100.00% |           0      0.00%    100.00% |           0      0.00%    100.00% |           0      0.00%    100.00% |           0      0.00%    100.00%
system.ruby.SimicsNetworkPortInterface_Controller.MessageRecv::total      2692456                      
system.ruby.SimicsNetworkPortInterface_Controller.A.MessageSend |      523021     19.43%     19.43% |     1346228     50.00%     69.43% |      104055      3.86%     73.29% |      108930      4.05%     77.34% |       98315      3.65%     80.99% |      109237      4.06%     85.04% |      101308      3.76%     88.81% |      103726      3.85%     92.66% |       98312      3.65%     96.31% |       99324      3.69%    100.00% |           0      0.00%    100.00% |           0      0.00%    100.00% |           0      0.00%    100.00% |           0      0.00%    100.00% |           0      0.00%    100.00% |           0      0.00%    100.00% |           0      0.00%    100.00% |           0      0.00%    100.00% |           0      0.00%    100.00% |           0      0.00%    100.00% |           0      0.00%    100.00% |           0      0.00%    100.00% |           0      0.00%    100.00% |           0      0.00%    100.00% |           0      0.00%    100.00% |           0      0.00%    100.00% |           0      0.00%    100.00% |           0      0.00%    100.00% |           0      0.00%    100.00% |           0      0.00%    100.00% |           0      0.00%    100.00% |           0      0.00%    100.00%
system.ruby.SimicsNetworkPortInterface_Controller.A.MessageSend::total      2692456                      
system.ruby.SimicsNetworkPortInterface_Controller.A.MessageRecv |      523021     19.43%     19.43% |     1346228     50.00%     69.43% |      104055      3.86%     73.29% |      108930      4.05%     77.34% |       98315      3.65%     80.99% |      109237      4.06%     85.04% |      101308      3.76%     88.81% |      103726      3.85%     92.66% |       98312      3.65%     96.31% |       99324      3.69%    100.00% |           0      0.00%    100.00% |           0      0.00%    100.00% |           0      0.00%    100.00% |           0      0.00%    100.00% |           0      0.00%    100.00% |           0      0.00%    100.00% |           0      0.00%    100.00% |           0      0.00%    100.00% |           0      0.00%    100.00% |           0      0.00%    100.00% |           0      0.00%    100.00% |           0      0.00%    100.00% |           0      0.00%    100.00% |           0      0.00%    100.00% |           0      0.00%    100.00% |           0      0.00%    100.00% |           0      0.00%    100.00% |           0      0.00%    100.00% |           0      0.00%    100.00% |           0      0.00%    100.00% |           0      0.00%    100.00% |           0      0.00%    100.00%
system.ruby.SimicsNetworkPortInterface_Controller.A.MessageRecv::total      2692456                      
system.switch_cpus.kern.inst.arm                    0                       # number of arm instructions executed
system.switch_cpus.kern.inst.quiesce                0                       # number of quiesce instructions executed

---------- End Simulation Statistics   ----------
