
---------- Begin Simulation Statistics ----------
sim_seconds                                  0.034784                       # Number of seconds simulated
sim_ticks                                 34784243000                       # Number of ticks simulated
final_tick                               5210952321500                       # Number of ticks from beginning of simulation (restored from checkpoints and never reset)
sim_freq                                 1000000000000                       # Frequency of simulated ticks
host_inst_rate                                  26621                       # Simulator instruction rate (inst/s)
host_op_rate                                    49118                       # Simulator op (including micro ops) rate (op/s)
host_tick_rate                               45284162                       # Simulator tick rate (ticks/s)
host_mem_usage                                4658660                       # Number of bytes of host memory used
host_seconds                                   768.13                       # Real time elapsed on the host
sim_insts                                    20448179                       # Number of instructions simulated
sim_ops                                      37729424                       # Number of ops (including micro ops) simulated
system.voltage_domain.voltage                       1                       # Voltage in Volts
system.clk_domain.clock                           500                       # Clock period in ticks
system.mem_ctrls0.bytes_read::ruby.dir_cntrl0      4959168                       # Number of bytes read from this memory
system.mem_ctrls0.bytes_read::total           4959168                       # Number of bytes read from this memory
system.mem_ctrls0.bytes_written::ruby.dir_cntrl0      3960512                       # Number of bytes written to this memory
system.mem_ctrls0.bytes_written::total        3960512                       # Number of bytes written to this memory
system.mem_ctrls0.num_reads::ruby.dir_cntrl0        77487                       # Number of read requests responded to by this memory
system.mem_ctrls0.num_reads::total              77487                       # Number of read requests responded to by this memory
system.mem_ctrls0.num_writes::ruby.dir_cntrl0        61883                       # Number of write requests responded to by this memory
system.mem_ctrls0.num_writes::total             61883                       # Number of write requests responded to by this memory
system.mem_ctrls0.bw_read::ruby.dir_cntrl0    142569381                       # Total read bandwidth from this memory (bytes/s)
system.mem_ctrls0.bw_read::total            142569381                       # Total read bandwidth from this memory (bytes/s)
system.mem_ctrls0.bw_write::ruby.dir_cntrl0    113859370                       # Write bandwidth from this memory (bytes/s)
system.mem_ctrls0.bw_write::total           113859370                       # Write bandwidth from this memory (bytes/s)
system.mem_ctrls0.bw_total::ruby.dir_cntrl0    256428751                       # Total bandwidth to/from this memory (bytes/s)
system.mem_ctrls0.bw_total::total           256428751                       # Total bandwidth to/from this memory (bytes/s)
system.mem_ctrls0.readReqs                      77487                       # Number of read requests accepted
system.mem_ctrls0.writeReqs                     61883                       # Number of write requests accepted
system.mem_ctrls0.readBursts                    77487                       # Number of DRAM read bursts, including those serviced by the write queue
system.mem_ctrls0.writeBursts                   61883                       # Number of DRAM write bursts, including those merged in the write queue
system.mem_ctrls0.bytesReadDRAM               4957888                       # Total number of bytes read from DRAM
system.mem_ctrls0.bytesReadWrQ                   1280                       # Total number of bytes read from write queue
system.mem_ctrls0.bytesWritten                3960256                       # Total number of bytes written to DRAM
system.mem_ctrls0.bytesReadSys                4959168                       # Total read bytes from the system interface side
system.mem_ctrls0.bytesWrittenSys             3960512                       # Total written bytes from the system interface side
system.mem_ctrls0.servicedByWrQ                    20                       # Number of DRAM read bursts serviced by the write queue
system.mem_ctrls0.mergedWrBursts                    0                       # Number of DRAM write bursts merged with an existing one
system.mem_ctrls0.neitherReadNorWriteReqs            0                       # Number of requests that are neither read nor write
system.mem_ctrls0.perBankRdBursts::0             4396                       # Per bank write bursts
system.mem_ctrls0.perBankRdBursts::1             4824                       # Per bank write bursts
system.mem_ctrls0.perBankRdBursts::2             4540                       # Per bank write bursts
system.mem_ctrls0.perBankRdBursts::3             4963                       # Per bank write bursts
system.mem_ctrls0.perBankRdBursts::4             4827                       # Per bank write bursts
system.mem_ctrls0.perBankRdBursts::5             5340                       # Per bank write bursts
system.mem_ctrls0.perBankRdBursts::6             4951                       # Per bank write bursts
system.mem_ctrls0.perBankRdBursts::7             5213                       # Per bank write bursts
system.mem_ctrls0.perBankRdBursts::8             5027                       # Per bank write bursts
system.mem_ctrls0.perBankRdBursts::9             5196                       # Per bank write bursts
system.mem_ctrls0.perBankRdBursts::10            4605                       # Per bank write bursts
system.mem_ctrls0.perBankRdBursts::11            4784                       # Per bank write bursts
system.mem_ctrls0.perBankRdBursts::12            4572                       # Per bank write bursts
system.mem_ctrls0.perBankRdBursts::13            4622                       # Per bank write bursts
system.mem_ctrls0.perBankRdBursts::14            4793                       # Per bank write bursts
system.mem_ctrls0.perBankRdBursts::15            4814                       # Per bank write bursts
system.mem_ctrls0.perBankWrBursts::0             3628                       # Per bank write bursts
system.mem_ctrls0.perBankWrBursts::1             3578                       # Per bank write bursts
system.mem_ctrls0.perBankWrBursts::2             3628                       # Per bank write bursts
system.mem_ctrls0.perBankWrBursts::3             3768                       # Per bank write bursts
system.mem_ctrls0.perBankWrBursts::4             3868                       # Per bank write bursts
system.mem_ctrls0.perBankWrBursts::5             4189                       # Per bank write bursts
system.mem_ctrls0.perBankWrBursts::6             3908                       # Per bank write bursts
system.mem_ctrls0.perBankWrBursts::7             4176                       # Per bank write bursts
system.mem_ctrls0.perBankWrBursts::8             4033                       # Per bank write bursts
system.mem_ctrls0.perBankWrBursts::9             4114                       # Per bank write bursts
system.mem_ctrls0.perBankWrBursts::10            3685                       # Per bank write bursts
system.mem_ctrls0.perBankWrBursts::11            3644                       # Per bank write bursts
system.mem_ctrls0.perBankWrBursts::12            3777                       # Per bank write bursts
system.mem_ctrls0.perBankWrBursts::13            3908                       # Per bank write bursts
system.mem_ctrls0.perBankWrBursts::14            4053                       # Per bank write bursts
system.mem_ctrls0.perBankWrBursts::15            3922                       # Per bank write bursts
system.mem_ctrls0.numRdRetry                     2323                       # Number of times read queue was full causing retry
system.mem_ctrls0.numWrRetry                     3281                       # Number of times write queue was full causing retry
system.mem_ctrls0.totGap                  34783739000                       # Total gap between requests
system.mem_ctrls0.readPktSize::0                    0                       # Read request sizes (log2)
system.mem_ctrls0.readPktSize::1                    0                       # Read request sizes (log2)
system.mem_ctrls0.readPktSize::2                    0                       # Read request sizes (log2)
system.mem_ctrls0.readPktSize::3                    0                       # Read request sizes (log2)
system.mem_ctrls0.readPktSize::4                    0                       # Read request sizes (log2)
system.mem_ctrls0.readPktSize::5                    0                       # Read request sizes (log2)
system.mem_ctrls0.readPktSize::6                77487                       # Read request sizes (log2)
system.mem_ctrls0.writePktSize::0                   0                       # Write request sizes (log2)
system.mem_ctrls0.writePktSize::1                   0                       # Write request sizes (log2)
system.mem_ctrls0.writePktSize::2                   0                       # Write request sizes (log2)
system.mem_ctrls0.writePktSize::3                   0                       # Write request sizes (log2)
system.mem_ctrls0.writePktSize::4                   0                       # Write request sizes (log2)
system.mem_ctrls0.writePktSize::5                   0                       # Write request sizes (log2)
system.mem_ctrls0.writePktSize::6               61883                       # Write request sizes (log2)
system.mem_ctrls0.rdQLenPdf::0                  41615                       # What read queue length does an incoming req see
system.mem_ctrls0.rdQLenPdf::1                   8009                       # What read queue length does an incoming req see
system.mem_ctrls0.rdQLenPdf::2                   5704                       # What read queue length does an incoming req see
system.mem_ctrls0.rdQLenPdf::3                   4150                       # What read queue length does an incoming req see
system.mem_ctrls0.rdQLenPdf::4                   2923                       # What read queue length does an incoming req see
system.mem_ctrls0.rdQLenPdf::5                   2107                       # What read queue length does an incoming req see
system.mem_ctrls0.rdQLenPdf::6                   1451                       # What read queue length does an incoming req see
system.mem_ctrls0.rdQLenPdf::7                   1054                       # What read queue length does an incoming req see
system.mem_ctrls0.rdQLenPdf::8                    835                       # What read queue length does an incoming req see
system.mem_ctrls0.rdQLenPdf::9                    660                       # What read queue length does an incoming req see
system.mem_ctrls0.rdQLenPdf::10                   568                       # What read queue length does an incoming req see
system.mem_ctrls0.rdQLenPdf::11                   544                       # What read queue length does an incoming req see
system.mem_ctrls0.rdQLenPdf::12                   491                       # What read queue length does an incoming req see
system.mem_ctrls0.rdQLenPdf::13                   418                       # What read queue length does an incoming req see
system.mem_ctrls0.rdQLenPdf::14                   394                       # What read queue length does an incoming req see
system.mem_ctrls0.rdQLenPdf::15                   369                       # What read queue length does an incoming req see
system.mem_ctrls0.rdQLenPdf::16                   343                       # What read queue length does an incoming req see
system.mem_ctrls0.rdQLenPdf::17                   339                       # What read queue length does an incoming req see
system.mem_ctrls0.rdQLenPdf::18                   327                       # What read queue length does an incoming req see
system.mem_ctrls0.rdQLenPdf::19                   319                       # What read queue length does an incoming req see
system.mem_ctrls0.rdQLenPdf::20                   301                       # What read queue length does an incoming req see
system.mem_ctrls0.rdQLenPdf::21                   280                       # What read queue length does an incoming req see
system.mem_ctrls0.rdQLenPdf::22                   254                       # What read queue length does an incoming req see
system.mem_ctrls0.rdQLenPdf::23                   216                       # What read queue length does an incoming req see
system.mem_ctrls0.rdQLenPdf::24                   215                       # What read queue length does an incoming req see
system.mem_ctrls0.rdQLenPdf::25                   201                       # What read queue length does an incoming req see
system.mem_ctrls0.rdQLenPdf::26                   158                       # What read queue length does an incoming req see
system.mem_ctrls0.rdQLenPdf::27                   133                       # What read queue length does an incoming req see
system.mem_ctrls0.rdQLenPdf::28                   132                       # What read queue length does an incoming req see
system.mem_ctrls0.rdQLenPdf::29                   136                       # What read queue length does an incoming req see
system.mem_ctrls0.rdQLenPdf::30                   181                       # What read queue length does an incoming req see
system.mem_ctrls0.rdQLenPdf::31                  2640                       # What read queue length does an incoming req see
system.mem_ctrls0.wrQLenPdf::0                   9278                       # What write queue length does an incoming req see
system.mem_ctrls0.wrQLenPdf::1                  10816                       # What write queue length does an incoming req see
system.mem_ctrls0.wrQLenPdf::2                  11218                       # What write queue length does an incoming req see
system.mem_ctrls0.wrQLenPdf::3                  11155                       # What write queue length does an incoming req see
system.mem_ctrls0.wrQLenPdf::4                  10857                       # What write queue length does an incoming req see
system.mem_ctrls0.wrQLenPdf::5                   2146                       # What write queue length does an incoming req see
system.mem_ctrls0.wrQLenPdf::6                   1700                       # What write queue length does an incoming req see
system.mem_ctrls0.wrQLenPdf::7                   4713                       # What write queue length does an incoming req see
system.mem_ctrls0.bytesPerActivate::samples        62461                       # Bytes accessed per row activation
system.mem_ctrls0.bytesPerActivate::mean   142.763004                       # Bytes accessed per row activation
system.mem_ctrls0.bytesPerActivate::gmean   102.796655                       # Bytes accessed per row activation
system.mem_ctrls0.bytesPerActivate::stdev   160.460735                       # Bytes accessed per row activation
system.mem_ctrls0.bytesPerActivate::0-127        38981     62.41%     62.41% # Bytes accessed per row activation
system.mem_ctrls0.bytesPerActivate::128-255        12724     20.37%     82.78% # Bytes accessed per row activation
system.mem_ctrls0.bytesPerActivate::256-383         6497     10.40%     93.18% # Bytes accessed per row activation
system.mem_ctrls0.bytesPerActivate::384-511         1575      2.52%     95.70% # Bytes accessed per row activation
system.mem_ctrls0.bytesPerActivate::512-639          933      1.49%     97.20% # Bytes accessed per row activation
system.mem_ctrls0.bytesPerActivate::640-767          496      0.79%     97.99% # Bytes accessed per row activation
system.mem_ctrls0.bytesPerActivate::768-895          339      0.54%     98.53% # Bytes accessed per row activation
system.mem_ctrls0.bytesPerActivate::896-1023          305      0.49%     99.02% # Bytes accessed per row activation
system.mem_ctrls0.bytesPerActivate::1024-1151          611      0.98%    100.00% # Bytes accessed per row activation
system.mem_ctrls0.bytesPerActivate::total        62461                       # Bytes accessed per row activation
system.mem_ctrls0.rdPerTurnAround::samples         9739                       # Reads before turning the bus around for writes
system.mem_ctrls0.rdPerTurnAround::mean      7.953383                       # Reads before turning the bus around for writes
system.mem_ctrls0.rdPerTurnAround::stdev    41.056264                       # Reads before turning the bus around for writes
system.mem_ctrls0.rdPerTurnAround::0-127         9733     99.94%     99.94% # Reads before turning the bus around for writes
system.mem_ctrls0.rdPerTurnAround::128-255            5      0.05%     99.99% # Reads before turning the bus around for writes
system.mem_ctrls0.rdPerTurnAround::3968-4095            1      0.01%    100.00% # Reads before turning the bus around for writes
system.mem_ctrls0.rdPerTurnAround::total         9739                       # Reads before turning the bus around for writes
system.mem_ctrls0.wrPerTurnAround::samples         9739                       # Writes before turning the bus around for reads
system.mem_ctrls0.wrPerTurnAround::mean      6.353732                       # Writes before turning the bus around for reads
system.mem_ctrls0.wrPerTurnAround::gmean     5.945292                       # Writes before turning the bus around for reads
system.mem_ctrls0.wrPerTurnAround::stdev     2.883341                       # Writes before turning the bus around for reads
system.mem_ctrls0.wrPerTurnAround::4-7           8174     83.93%     83.93% # Writes before turning the bus around for reads
system.mem_ctrls0.wrPerTurnAround::8-11           770      7.91%     91.84% # Writes before turning the bus around for reads
system.mem_ctrls0.wrPerTurnAround::12-15          268      2.75%     94.59% # Writes before turning the bus around for reads
system.mem_ctrls0.wrPerTurnAround::16-19          527      5.41%    100.00% # Writes before turning the bus around for reads
system.mem_ctrls0.wrPerTurnAround::total         9739                       # Writes before turning the bus around for reads
system.mem_ctrls0.totQLat                  5716964376                       # Total ticks spent queuing
system.mem_ctrls0.totMemAccLat             7169470626                       # Total ticks spent from burst creation until serviced by the DRAM
system.mem_ctrls0.totBusLat                 387335000                       # Total ticks spent in databus transfers
system.mem_ctrls0.avgQLat                    73798.71                       # Average queueing delay per DRAM burst
system.mem_ctrls0.avgBusLat                   5000.00                       # Average bus latency per DRAM burst
system.mem_ctrls0.avgMemAccLat               92548.71                       # Average memory access latency per DRAM burst
system.mem_ctrls0.avgRdBW                      142.53                       # Average DRAM read bandwidth in MiByte/s
system.mem_ctrls0.avgWrBW                      113.85                       # Average achieved write bandwidth in MiByte/s
system.mem_ctrls0.avgRdBWSys                   142.57                       # Average system read bandwidth in MiByte/s
system.mem_ctrls0.avgWrBWSys                   113.86                       # Average system write bandwidth in MiByte/s
system.mem_ctrls0.peakBW                     12800.00                       # Theoretical peak bandwidth in MiByte/s
system.mem_ctrls0.busUtil                        2.00                       # Data bus utilization in percentage
system.mem_ctrls0.busUtilRead                    1.11                       # Data bus utilization in percentage for reads
system.mem_ctrls0.busUtilWrite                   0.89                       # Data bus utilization in percentage for writes
system.mem_ctrls0.avgRdQLen                      1.23                       # Average read queue length when enqueuing
system.mem_ctrls0.avgWrQLen                      2.86                       # Average write queue length when enqueuing
system.mem_ctrls0.readRowHits                   46823                       # Number of row buffer hits during reads
system.mem_ctrls0.writeRowHits                  30050                       # Number of row buffer hits during writes
system.mem_ctrls0.readRowHitRate                60.44                       # Row buffer hit rate for reads
system.mem_ctrls0.writeRowHitRate               48.56                       # Row buffer hit rate for writes
system.mem_ctrls0.avgGap                    249578.38                       # Average gap between requests
system.mem_ctrls0.pageHitRate                   55.17                       # Row buffer hit rate, read and write combined
system.mem_ctrls0.memoryStateTime::IDLE    8374911250                       # Time in different power states
system.mem_ctrls0.memoryStateTime::REF     1161420000                       # Time in different power states
system.mem_ctrls0.memoryStateTime::PRE_PDN            0                       # Time in different power states
system.mem_ctrls0.memoryStateTime::ACT    25245121250                       # Time in different power states
system.mem_ctrls0.memoryStateTime::ACT_PDN            0                       # Time in different power states
system.mem_ctrls0.actEnergy::0              234571680                       # Energy for activate commands per rank (pJ)
system.mem_ctrls0.actEnergy::1              237595680                       # Energy for activate commands per rank (pJ)
system.mem_ctrls0.preEnergy::0              127990500                       # Energy for precharge commands per rank (pJ)
system.mem_ctrls0.preEnergy::1              129640500                       # Energy for precharge commands per rank (pJ)
system.mem_ctrls0.readEnergy::0             304558800                       # Energy for read commands per rank (pJ)
system.mem_ctrls0.readEnergy::1             299559000                       # Energy for read commands per rank (pJ)
system.mem_ctrls0.writeEnergy::0            199214640                       # Energy for write commands per rank (pJ)
system.mem_ctrls0.writeEnergy::1            201728880                       # Energy for write commands per rank (pJ)
system.mem_ctrls0.refreshEnergy::0         2271737520                       # Energy for refresh commands per rank (pJ)
system.mem_ctrls0.refreshEnergy::1         2271737520                       # Energy for refresh commands per rank (pJ)
system.mem_ctrls0.actBackEnergy::0        13287237795                       # Energy for active background per rank (pJ)
system.mem_ctrls0.actBackEnergy::1        12811639770                       # Energy for active background per rank (pJ)
system.mem_ctrls0.preBackEnergy::0         9213391500                       # Energy for precharge background per rank (pJ)
system.mem_ctrls0.preBackEnergy::1         9630582750                       # Energy for precharge background per rank (pJ)
system.mem_ctrls0.totalEnergy::0          25638702435                       # Total energy per rank (pJ)
system.mem_ctrls0.totalEnergy::1          25582484100                       # Total energy per rank (pJ)
system.mem_ctrls0.averagePower::0          737.137489                       # Core power per rank (mW)
system.mem_ctrls0.averagePower::1          735.521158                       # Core power per rank (mW)
system.mem_ctrls1.bytes_read::ruby.dir_cntrl1      4873344                       # Number of bytes read from this memory
system.mem_ctrls1.bytes_read::total           4873344                       # Number of bytes read from this memory
system.mem_ctrls1.bytes_written::ruby.dir_cntrl1      3883520                       # Number of bytes written to this memory
system.mem_ctrls1.bytes_written::total        3883520                       # Number of bytes written to this memory
system.mem_ctrls1.num_reads::ruby.dir_cntrl1        76146                       # Number of read requests responded to by this memory
system.mem_ctrls1.num_reads::total              76146                       # Number of read requests responded to by this memory
system.mem_ctrls1.num_writes::ruby.dir_cntrl1        60680                       # Number of write requests responded to by this memory
system.mem_ctrls1.num_writes::total             60680                       # Number of write requests responded to by this memory
system.mem_ctrls1.bw_read::ruby.dir_cntrl1    140102057                       # Total read bandwidth from this memory (bytes/s)
system.mem_ctrls1.bw_read::total            140102057                       # Total read bandwidth from this memory (bytes/s)
system.mem_ctrls1.bw_write::ruby.dir_cntrl1    111645954                       # Write bandwidth from this memory (bytes/s)
system.mem_ctrls1.bw_write::total           111645954                       # Write bandwidth from this memory (bytes/s)
system.mem_ctrls1.bw_total::ruby.dir_cntrl1    251748011                       # Total bandwidth to/from this memory (bytes/s)
system.mem_ctrls1.bw_total::total           251748011                       # Total bandwidth to/from this memory (bytes/s)
system.mem_ctrls1.readReqs                      76148                       # Number of read requests accepted
system.mem_ctrls1.writeReqs                     60680                       # Number of write requests accepted
system.mem_ctrls1.readBursts                    76148                       # Number of DRAM read bursts, including those serviced by the write queue
system.mem_ctrls1.writeBursts                   60680                       # Number of DRAM write bursts, including those merged in the write queue
system.mem_ctrls1.bytesReadDRAM               4872512                       # Total number of bytes read from DRAM
system.mem_ctrls1.bytesReadWrQ                    960                       # Total number of bytes read from write queue
system.mem_ctrls1.bytesWritten                3883264                       # Total number of bytes written to DRAM
system.mem_ctrls1.bytesReadSys                4873472                       # Total read bytes from the system interface side
system.mem_ctrls1.bytesWrittenSys             3883520                       # Total written bytes from the system interface side
system.mem_ctrls1.servicedByWrQ                    15                       # Number of DRAM read bursts serviced by the write queue
system.mem_ctrls1.mergedWrBursts                    0                       # Number of DRAM write bursts merged with an existing one
system.mem_ctrls1.neitherReadNorWriteReqs            0                       # Number of requests that are neither read nor write
system.mem_ctrls1.perBankRdBursts::0             4328                       # Per bank write bursts
system.mem_ctrls1.perBankRdBursts::1             4731                       # Per bank write bursts
system.mem_ctrls1.perBankRdBursts::2             4456                       # Per bank write bursts
system.mem_ctrls1.perBankRdBursts::3             4891                       # Per bank write bursts
system.mem_ctrls1.perBankRdBursts::4             4762                       # Per bank write bursts
system.mem_ctrls1.perBankRdBursts::5             5281                       # Per bank write bursts
system.mem_ctrls1.perBankRdBursts::6             4882                       # Per bank write bursts
system.mem_ctrls1.perBankRdBursts::7             5157                       # Per bank write bursts
system.mem_ctrls1.perBankRdBursts::8             4920                       # Per bank write bursts
system.mem_ctrls1.perBankRdBursts::9             5081                       # Per bank write bursts
system.mem_ctrls1.perBankRdBursts::10            4508                       # Per bank write bursts
system.mem_ctrls1.perBankRdBursts::11            4720                       # Per bank write bursts
system.mem_ctrls1.perBankRdBursts::12            4475                       # Per bank write bursts
system.mem_ctrls1.perBankRdBursts::13            4566                       # Per bank write bursts
system.mem_ctrls1.perBankRdBursts::14            4636                       # Per bank write bursts
system.mem_ctrls1.perBankRdBursts::15            4739                       # Per bank write bursts
system.mem_ctrls1.perBankWrBursts::0             3562                       # Per bank write bursts
system.mem_ctrls1.perBankWrBursts::1             3519                       # Per bank write bursts
system.mem_ctrls1.perBankWrBursts::2             3562                       # Per bank write bursts
system.mem_ctrls1.perBankWrBursts::3             3720                       # Per bank write bursts
system.mem_ctrls1.perBankWrBursts::4             3804                       # Per bank write bursts
system.mem_ctrls1.perBankWrBursts::5             4118                       # Per bank write bursts
system.mem_ctrls1.perBankWrBursts::6             3831                       # Per bank write bursts
system.mem_ctrls1.perBankWrBursts::7             4099                       # Per bank write bursts
system.mem_ctrls1.perBankWrBursts::8             3947                       # Per bank write bursts
system.mem_ctrls1.perBankWrBursts::9             4015                       # Per bank write bursts
system.mem_ctrls1.perBankWrBursts::10            3603                       # Per bank write bursts
system.mem_ctrls1.perBankWrBursts::11            3578                       # Per bank write bursts
system.mem_ctrls1.perBankWrBursts::12            3703                       # Per bank write bursts
system.mem_ctrls1.perBankWrBursts::13            3838                       # Per bank write bursts
system.mem_ctrls1.perBankWrBursts::14            3924                       # Per bank write bursts
system.mem_ctrls1.perBankWrBursts::15            3853                       # Per bank write bursts
system.mem_ctrls1.numRdRetry                     2148                       # Number of times read queue was full causing retry
system.mem_ctrls1.numWrRetry                     3722                       # Number of times write queue was full causing retry
system.mem_ctrls1.totGap                  34783615500                       # Total gap between requests
system.mem_ctrls1.readPktSize::0                    0                       # Read request sizes (log2)
system.mem_ctrls1.readPktSize::1                    0                       # Read request sizes (log2)
system.mem_ctrls1.readPktSize::2                    0                       # Read request sizes (log2)
system.mem_ctrls1.readPktSize::3                    0                       # Read request sizes (log2)
system.mem_ctrls1.readPktSize::4                    0                       # Read request sizes (log2)
system.mem_ctrls1.readPktSize::5                    0                       # Read request sizes (log2)
system.mem_ctrls1.readPktSize::6                76148                       # Read request sizes (log2)
system.mem_ctrls1.writePktSize::0                   0                       # Write request sizes (log2)
system.mem_ctrls1.writePktSize::1                   0                       # Write request sizes (log2)
system.mem_ctrls1.writePktSize::2                   0                       # Write request sizes (log2)
system.mem_ctrls1.writePktSize::3                   0                       # Write request sizes (log2)
system.mem_ctrls1.writePktSize::4                   0                       # Write request sizes (log2)
system.mem_ctrls1.writePktSize::5                   0                       # Write request sizes (log2)
system.mem_ctrls1.writePktSize::6               60680                       # Write request sizes (log2)
system.mem_ctrls1.rdQLenPdf::0                  40897                       # What read queue length does an incoming req see
system.mem_ctrls1.rdQLenPdf::1                   7488                       # What read queue length does an incoming req see
system.mem_ctrls1.rdQLenPdf::2                   5665                       # What read queue length does an incoming req see
system.mem_ctrls1.rdQLenPdf::3                   4185                       # What read queue length does an incoming req see
system.mem_ctrls1.rdQLenPdf::4                   2995                       # What read queue length does an incoming req see
system.mem_ctrls1.rdQLenPdf::5                   2075                       # What read queue length does an incoming req see
system.mem_ctrls1.rdQLenPdf::6                   1470                       # What read queue length does an incoming req see
system.mem_ctrls1.rdQLenPdf::7                   1085                       # What read queue length does an incoming req see
system.mem_ctrls1.rdQLenPdf::8                    840                       # What read queue length does an incoming req see
system.mem_ctrls1.rdQLenPdf::9                    690                       # What read queue length does an incoming req see
system.mem_ctrls1.rdQLenPdf::10                   577                       # What read queue length does an incoming req see
system.mem_ctrls1.rdQLenPdf::11                   504                       # What read queue length does an incoming req see
system.mem_ctrls1.rdQLenPdf::12                   473                       # What read queue length does an incoming req see
system.mem_ctrls1.rdQLenPdf::13                   452                       # What read queue length does an incoming req see
system.mem_ctrls1.rdQLenPdf::14                   421                       # What read queue length does an incoming req see
system.mem_ctrls1.rdQLenPdf::15                   390                       # What read queue length does an incoming req see
system.mem_ctrls1.rdQLenPdf::16                   377                       # What read queue length does an incoming req see
system.mem_ctrls1.rdQLenPdf::17                   361                       # What read queue length does an incoming req see
system.mem_ctrls1.rdQLenPdf::18                   334                       # What read queue length does an incoming req see
system.mem_ctrls1.rdQLenPdf::19                   310                       # What read queue length does an incoming req see
system.mem_ctrls1.rdQLenPdf::20                   280                       # What read queue length does an incoming req see
system.mem_ctrls1.rdQLenPdf::21                   268                       # What read queue length does an incoming req see
system.mem_ctrls1.rdQLenPdf::22                   244                       # What read queue length does an incoming req see
system.mem_ctrls1.rdQLenPdf::23                   232                       # What read queue length does an incoming req see
system.mem_ctrls1.rdQLenPdf::24                   211                       # What read queue length does an incoming req see
system.mem_ctrls1.rdQLenPdf::25                   194                       # What read queue length does an incoming req see
system.mem_ctrls1.rdQLenPdf::26                   160                       # What read queue length does an incoming req see
system.mem_ctrls1.rdQLenPdf::27                   147                       # What read queue length does an incoming req see
system.mem_ctrls1.rdQLenPdf::28                   117                       # What read queue length does an incoming req see
system.mem_ctrls1.rdQLenPdf::29                   120                       # What read queue length does an incoming req see
system.mem_ctrls1.rdQLenPdf::30                   145                       # What read queue length does an incoming req see
system.mem_ctrls1.rdQLenPdf::31                  2426                       # What read queue length does an incoming req see
system.mem_ctrls1.wrQLenPdf::0                   9086                       # What write queue length does an incoming req see
system.mem_ctrls1.wrQLenPdf::1                  10494                       # What write queue length does an incoming req see
system.mem_ctrls1.wrQLenPdf::2                  10837                       # What write queue length does an incoming req see
system.mem_ctrls1.wrQLenPdf::3                  10840                       # What write queue length does an incoming req see
system.mem_ctrls1.wrQLenPdf::4                  10594                       # What write queue length does an incoming req see
system.mem_ctrls1.wrQLenPdf::5                   2056                       # What write queue length does an incoming req see
system.mem_ctrls1.wrQLenPdf::6                   1645                       # What write queue length does an incoming req see
system.mem_ctrls1.wrQLenPdf::7                   5128                       # What write queue length does an incoming req see
system.mem_ctrls1.bytesPerActivate::samples        60588                       # Bytes accessed per row activation
system.mem_ctrls1.bytesPerActivate::mean   144.491186                       # Bytes accessed per row activation
system.mem_ctrls1.bytesPerActivate::gmean   103.459165                       # Bytes accessed per row activation
system.mem_ctrls1.bytesPerActivate::stdev   163.357383                       # Bytes accessed per row activation
system.mem_ctrls1.bytesPerActivate::0-127        37631     62.11%     62.11% # Bytes accessed per row activation
system.mem_ctrls1.bytesPerActivate::128-255        12367     20.41%     82.52% # Bytes accessed per row activation
system.mem_ctrls1.bytesPerActivate::256-383         6382     10.53%     93.05% # Bytes accessed per row activation
system.mem_ctrls1.bytesPerActivate::384-511         1468      2.42%     95.48% # Bytes accessed per row activation
system.mem_ctrls1.bytesPerActivate::512-639          930      1.53%     97.01% # Bytes accessed per row activation
system.mem_ctrls1.bytesPerActivate::640-767          521      0.86%     97.87% # Bytes accessed per row activation
system.mem_ctrls1.bytesPerActivate::768-895          386      0.64%     98.51% # Bytes accessed per row activation
system.mem_ctrls1.bytesPerActivate::896-1023          269      0.44%     98.95% # Bytes accessed per row activation
system.mem_ctrls1.bytesPerActivate::1024-1151          634      1.05%    100.00% # Bytes accessed per row activation
system.mem_ctrls1.bytesPerActivate::total        60588                       # Bytes accessed per row activation
system.mem_ctrls1.rdPerTurnAround::samples         9545                       # Reads before turning the bus around for writes
system.mem_ctrls1.rdPerTurnAround::mean      7.975170                       # Reads before turning the bus around for writes
system.mem_ctrls1.rdPerTurnAround::stdev    32.774128                       # Reads before turning the bus around for writes
system.mem_ctrls1.rdPerTurnAround::0-127         9540     99.95%     99.95% # Reads before turning the bus around for writes
system.mem_ctrls1.rdPerTurnAround::128-255            3      0.03%     99.98% # Reads before turning the bus around for writes
system.mem_ctrls1.rdPerTurnAround::1152-1279            1      0.01%     99.99% # Reads before turning the bus around for writes
system.mem_ctrls1.rdPerTurnAround::2816-2943            1      0.01%    100.00% # Reads before turning the bus around for writes
system.mem_ctrls1.rdPerTurnAround::total         9545                       # Reads before turning the bus around for writes
system.mem_ctrls1.wrPerTurnAround::samples         9545                       # Writes before turning the bus around for reads
system.mem_ctrls1.wrPerTurnAround::mean      6.356836                       # Writes before turning the bus around for reads
system.mem_ctrls1.wrPerTurnAround::gmean     5.940580                       # Writes before turning the bus around for reads
system.mem_ctrls1.wrPerTurnAround::stdev     2.917571                       # Writes before turning the bus around for reads
system.mem_ctrls1.wrPerTurnAround::4-7           8018     84.00%     84.00% # Writes before turning the bus around for reads
system.mem_ctrls1.wrPerTurnAround::8-11           731      7.66%     91.66% # Writes before turning the bus around for reads
system.mem_ctrls1.wrPerTurnAround::12-15          259      2.71%     94.37% # Writes before turning the bus around for reads
system.mem_ctrls1.wrPerTurnAround::16-19          537      5.63%    100.00% # Writes before turning the bus around for reads
system.mem_ctrls1.wrPerTurnAround::total         9545                       # Writes before turning the bus around for reads
system.mem_ctrls1.totQLat                  5640677942                       # Total ticks spent queuing
system.mem_ctrls1.totMemAccLat             7068171692                       # Total ticks spent from burst creation until serviced by the DRAM
system.mem_ctrls1.totBusLat                 380665000                       # Total ticks spent in databus transfers
system.mem_ctrls1.avgQLat                    74089.79                       # Average queueing delay per DRAM burst
system.mem_ctrls1.avgBusLat                   5000.00                       # Average bus latency per DRAM burst
system.mem_ctrls1.avgMemAccLat               92839.79                       # Average memory access latency per DRAM burst
system.mem_ctrls1.avgRdBW                      140.08                       # Average DRAM read bandwidth in MiByte/s
system.mem_ctrls1.avgWrBW                      111.64                       # Average achieved write bandwidth in MiByte/s
system.mem_ctrls1.avgRdBWSys                   140.11                       # Average system read bandwidth in MiByte/s
system.mem_ctrls1.avgWrBWSys                   111.65                       # Average system write bandwidth in MiByte/s
system.mem_ctrls1.peakBW                     12800.00                       # Theoretical peak bandwidth in MiByte/s
system.mem_ctrls1.busUtil                        1.97                       # Data bus utilization in percentage
system.mem_ctrls1.busUtilRead                    1.09                       # Data bus utilization in percentage for reads
system.mem_ctrls1.busUtilWrite                   0.87                       # Data bus utilization in percentage for writes
system.mem_ctrls1.avgRdQLen                      1.20                       # Average read queue length when enqueuing
system.mem_ctrls1.avgWrQLen                      2.92                       # Average write queue length when enqueuing
system.mem_ctrls1.readRowHits                   46051                       # Number of row buffer hits during reads
system.mem_ctrls1.writeRowHits                  30159                       # Number of row buffer hits during writes
system.mem_ctrls1.readRowHitRate                60.49                       # Row buffer hit rate for reads
system.mem_ctrls1.writeRowHitRate               49.70                       # Row buffer hit rate for writes
system.mem_ctrls1.avgGap                    254214.16                       # Average gap between requests
system.mem_ctrls1.pageHitRate                   55.70                       # Row buffer hit rate, read and write combined
system.mem_ctrls1.memoryStateTime::IDLE    8732315000                       # Time in different power states
system.mem_ctrls1.memoryStateTime::REF     1161420000                       # Time in different power states
system.mem_ctrls1.memoryStateTime::PRE_PDN            0                       # Time in different power states
system.mem_ctrls1.memoryStateTime::ACT    24888372000                       # Time in different power states
system.mem_ctrls1.memoryStateTime::ACT_PDN            0                       # Time in different power states
system.mem_ctrls1.actEnergy::0              229582080                       # Energy for activate commands per rank (pJ)
system.mem_ctrls1.actEnergy::1              228410280                       # Energy for activate commands per rank (pJ)
system.mem_ctrls1.preEnergy::0              125268000                       # Energy for precharge commands per rank (pJ)
system.mem_ctrls1.preEnergy::1              124628625                       # Energy for precharge commands per rank (pJ)
system.mem_ctrls1.readEnergy::0             300128400                       # Energy for read commands per rank (pJ)
system.mem_ctrls1.readEnergy::1             293568600                       # Energy for read commands per rank (pJ)
system.mem_ctrls1.writeEnergy::0            195786720                       # Energy for write commands per rank (pJ)
system.mem_ctrls1.writeEnergy::1            197328960                       # Energy for write commands per rank (pJ)
system.mem_ctrls1.refreshEnergy::0         2271737520                       # Energy for refresh commands per rank (pJ)
system.mem_ctrls1.refreshEnergy::1         2271737520                       # Energy for refresh commands per rank (pJ)
system.mem_ctrls1.actBackEnergy::0        13159633320                       # Energy for active background per rank (pJ)
system.mem_ctrls1.actBackEnergy::1        12407282055                       # Energy for active background per rank (pJ)
system.mem_ctrls1.preBackEnergy::0         9325325250                       # Energy for precharge background per rank (pJ)
system.mem_ctrls1.preBackEnergy::1         9985282500                       # Energy for precharge background per rank (pJ)
system.mem_ctrls1.totalEnergy::0          25607461290                       # Total energy per rank (pJ)
system.mem_ctrls1.totalEnergy::1          25508238540                       # Total energy per rank (pJ)
system.mem_ctrls1.averagePower::0          736.239276                       # Core power per rank (mW)
system.mem_ctrls1.averagePower::1          733.386526                       # Core power per rank (mW)
system.mem_ctrls2.bytes_read::ruby.dir_cntrl2      4875008                       # Number of bytes read from this memory
system.mem_ctrls2.bytes_read::total           4875008                       # Number of bytes read from this memory
system.mem_ctrls2.bytes_written::ruby.dir_cntrl2      3884800                       # Number of bytes written to this memory
system.mem_ctrls2.bytes_written::total        3884800                       # Number of bytes written to this memory
system.mem_ctrls2.num_reads::ruby.dir_cntrl2        76172                       # Number of read requests responded to by this memory
system.mem_ctrls2.num_reads::total              76172                       # Number of read requests responded to by this memory
system.mem_ctrls2.num_writes::ruby.dir_cntrl2        60700                       # Number of write requests responded to by this memory
system.mem_ctrls2.num_writes::total             60700                       # Number of write requests responded to by this memory
system.mem_ctrls2.bw_read::ruby.dir_cntrl2    140149895                       # Total read bandwidth from this memory (bytes/s)
system.mem_ctrls2.bw_read::total            140149895                       # Total read bandwidth from this memory (bytes/s)
system.mem_ctrls2.bw_write::ruby.dir_cntrl2    111682752                       # Write bandwidth from this memory (bytes/s)
system.mem_ctrls2.bw_write::total           111682752                       # Write bandwidth from this memory (bytes/s)
system.mem_ctrls2.bw_total::ruby.dir_cntrl2    251832647                       # Total bandwidth to/from this memory (bytes/s)
system.mem_ctrls2.bw_total::total           251832647                       # Total bandwidth to/from this memory (bytes/s)
system.mem_ctrls2.readReqs                      76172                       # Number of read requests accepted
system.mem_ctrls2.writeReqs                     60700                       # Number of write requests accepted
system.mem_ctrls2.readBursts                    76172                       # Number of DRAM read bursts, including those serviced by the write queue
system.mem_ctrls2.writeBursts                   60700                       # Number of DRAM write bursts, including those merged in the write queue
system.mem_ctrls2.bytesReadDRAM               4873984                       # Total number of bytes read from DRAM
system.mem_ctrls2.bytesReadWrQ                   1024                       # Total number of bytes read from write queue
system.mem_ctrls2.bytesWritten                3884672                       # Total number of bytes written to DRAM
system.mem_ctrls2.bytesReadSys                4875008                       # Total read bytes from the system interface side
system.mem_ctrls2.bytesWrittenSys             3884800                       # Total written bytes from the system interface side
system.mem_ctrls2.servicedByWrQ                    16                       # Number of DRAM read bursts serviced by the write queue
system.mem_ctrls2.mergedWrBursts                    0                       # Number of DRAM write bursts merged with an existing one
system.mem_ctrls2.neitherReadNorWriteReqs            0                       # Number of requests that are neither read nor write
system.mem_ctrls2.perBankRdBursts::0             4320                       # Per bank write bursts
system.mem_ctrls2.perBankRdBursts::1             4739                       # Per bank write bursts
system.mem_ctrls2.perBankRdBursts::2             4464                       # Per bank write bursts
system.mem_ctrls2.perBankRdBursts::3             4906                       # Per bank write bursts
system.mem_ctrls2.perBankRdBursts::4             4763                       # Per bank write bursts
system.mem_ctrls2.perBankRdBursts::5             5280                       # Per bank write bursts
system.mem_ctrls2.perBankRdBursts::6             4863                       # Per bank write bursts
system.mem_ctrls2.perBankRdBursts::7             5157                       # Per bank write bursts
system.mem_ctrls2.perBankRdBursts::8             4905                       # Per bank write bursts
system.mem_ctrls2.perBankRdBursts::9             5097                       # Per bank write bursts
system.mem_ctrls2.perBankRdBursts::10            4510                       # Per bank write bursts
system.mem_ctrls2.perBankRdBursts::11            4762                       # Per bank write bursts
system.mem_ctrls2.perBankRdBursts::12            4481                       # Per bank write bursts
system.mem_ctrls2.perBankRdBursts::13            4534                       # Per bank write bursts
system.mem_ctrls2.perBankRdBursts::14            4625                       # Per bank write bursts
system.mem_ctrls2.perBankRdBursts::15            4750                       # Per bank write bursts
system.mem_ctrls2.perBankWrBursts::0             3561                       # Per bank write bursts
system.mem_ctrls2.perBankWrBursts::1             3524                       # Per bank write bursts
system.mem_ctrls2.perBankWrBursts::2             3560                       # Per bank write bursts
system.mem_ctrls2.perBankWrBursts::3             3712                       # Per bank write bursts
system.mem_ctrls2.perBankWrBursts::4             3805                       # Per bank write bursts
system.mem_ctrls2.perBankWrBursts::5             4114                       # Per bank write bursts
system.mem_ctrls2.perBankWrBursts::6             3836                       # Per bank write bursts
system.mem_ctrls2.perBankWrBursts::7             4111                       # Per bank write bursts
system.mem_ctrls2.perBankWrBursts::8             3949                       # Per bank write bursts
system.mem_ctrls2.perBankWrBursts::9             4026                       # Per bank write bursts
system.mem_ctrls2.perBankWrBursts::10            3602                       # Per bank write bursts
system.mem_ctrls2.perBankWrBursts::11            3586                       # Per bank write bursts
system.mem_ctrls2.perBankWrBursts::12            3712                       # Per bank write bursts
system.mem_ctrls2.perBankWrBursts::13            3826                       # Per bank write bursts
system.mem_ctrls2.perBankWrBursts::14            3925                       # Per bank write bursts
system.mem_ctrls2.perBankWrBursts::15            3849                       # Per bank write bursts
system.mem_ctrls2.numRdRetry                     1960                       # Number of times read queue was full causing retry
system.mem_ctrls2.numWrRetry                     3717                       # Number of times write queue was full causing retry
system.mem_ctrls2.totGap                  34783989000                       # Total gap between requests
system.mem_ctrls2.readPktSize::0                    0                       # Read request sizes (log2)
system.mem_ctrls2.readPktSize::1                    0                       # Read request sizes (log2)
system.mem_ctrls2.readPktSize::2                    0                       # Read request sizes (log2)
system.mem_ctrls2.readPktSize::3                    0                       # Read request sizes (log2)
system.mem_ctrls2.readPktSize::4                    0                       # Read request sizes (log2)
system.mem_ctrls2.readPktSize::5                    0                       # Read request sizes (log2)
system.mem_ctrls2.readPktSize::6                76172                       # Read request sizes (log2)
system.mem_ctrls2.writePktSize::0                   0                       # Write request sizes (log2)
system.mem_ctrls2.writePktSize::1                   0                       # Write request sizes (log2)
system.mem_ctrls2.writePktSize::2                   0                       # Write request sizes (log2)
system.mem_ctrls2.writePktSize::3                   0                       # Write request sizes (log2)
system.mem_ctrls2.writePktSize::4                   0                       # Write request sizes (log2)
system.mem_ctrls2.writePktSize::5                   0                       # Write request sizes (log2)
system.mem_ctrls2.writePktSize::6               60700                       # Write request sizes (log2)
system.mem_ctrls2.rdQLenPdf::0                  41025                       # What read queue length does an incoming req see
system.mem_ctrls2.rdQLenPdf::1                   7442                       # What read queue length does an incoming req see
system.mem_ctrls2.rdQLenPdf::2                   5559                       # What read queue length does an incoming req see
system.mem_ctrls2.rdQLenPdf::3                   4247                       # What read queue length does an incoming req see
system.mem_ctrls2.rdQLenPdf::4                   3111                       # What read queue length does an incoming req see
system.mem_ctrls2.rdQLenPdf::5                   2084                       # What read queue length does an incoming req see
system.mem_ctrls2.rdQLenPdf::6                   1381                       # What read queue length does an incoming req see
system.mem_ctrls2.rdQLenPdf::7                   1025                       # What read queue length does an incoming req see
system.mem_ctrls2.rdQLenPdf::8                    834                       # What read queue length does an incoming req see
system.mem_ctrls2.rdQLenPdf::9                    661                       # What read queue length does an incoming req see
system.mem_ctrls2.rdQLenPdf::10                   604                       # What read queue length does an incoming req see
system.mem_ctrls2.rdQLenPdf::11                   534                       # What read queue length does an incoming req see
system.mem_ctrls2.rdQLenPdf::12                   507                       # What read queue length does an incoming req see
system.mem_ctrls2.rdQLenPdf::13                   472                       # What read queue length does an incoming req see
system.mem_ctrls2.rdQLenPdf::14                   400                       # What read queue length does an incoming req see
system.mem_ctrls2.rdQLenPdf::15                   382                       # What read queue length does an incoming req see
system.mem_ctrls2.rdQLenPdf::16                   357                       # What read queue length does an incoming req see
system.mem_ctrls2.rdQLenPdf::17                   347                       # What read queue length does an incoming req see
system.mem_ctrls2.rdQLenPdf::18                   323                       # What read queue length does an incoming req see
system.mem_ctrls2.rdQLenPdf::19                   297                       # What read queue length does an incoming req see
system.mem_ctrls2.rdQLenPdf::20                   295                       # What read queue length does an incoming req see
system.mem_ctrls2.rdQLenPdf::21                   280                       # What read queue length does an incoming req see
system.mem_ctrls2.rdQLenPdf::22                   268                       # What read queue length does an incoming req see
system.mem_ctrls2.rdQLenPdf::23                   249                       # What read queue length does an incoming req see
system.mem_ctrls2.rdQLenPdf::24                   232                       # What read queue length does an incoming req see
system.mem_ctrls2.rdQLenPdf::25                   204                       # What read queue length does an incoming req see
system.mem_ctrls2.rdQLenPdf::26                   199                       # What read queue length does an incoming req see
system.mem_ctrls2.rdQLenPdf::27                   146                       # What read queue length does an incoming req see
system.mem_ctrls2.rdQLenPdf::28                   132                       # What read queue length does an incoming req see
system.mem_ctrls2.rdQLenPdf::29                   136                       # What read queue length does an incoming req see
system.mem_ctrls2.rdQLenPdf::30                   161                       # What read queue length does an incoming req see
system.mem_ctrls2.rdQLenPdf::31                  2262                       # What read queue length does an incoming req see
system.mem_ctrls2.wrQLenPdf::0                   9045                       # What write queue length does an incoming req see
system.mem_ctrls2.wrQLenPdf::1                  10470                       # What write queue length does an incoming req see
system.mem_ctrls2.wrQLenPdf::2                  10880                       # What write queue length does an incoming req see
system.mem_ctrls2.wrQLenPdf::3                  10861                       # What write queue length does an incoming req see
system.mem_ctrls2.wrQLenPdf::4                  10602                       # What write queue length does an incoming req see
system.mem_ctrls2.wrQLenPdf::5                   2040                       # What write queue length does an incoming req see
system.mem_ctrls2.wrQLenPdf::6                   1654                       # What write queue length does an incoming req see
system.mem_ctrls2.wrQLenPdf::7                   5148                       # What write queue length does an incoming req see
system.mem_ctrls2.bytesPerActivate::samples        60564                       # Bytes accessed per row activation
system.mem_ctrls2.bytesPerActivate::mean   144.604451                       # Bytes accessed per row activation
system.mem_ctrls2.bytesPerActivate::gmean   103.510397                       # Bytes accessed per row activation
system.mem_ctrls2.bytesPerActivate::stdev   163.353145                       # Bytes accessed per row activation
system.mem_ctrls2.bytesPerActivate::0-127        37634     62.14%     62.14% # Bytes accessed per row activation
system.mem_ctrls2.bytesPerActivate::128-255        12295     20.30%     82.44% # Bytes accessed per row activation
system.mem_ctrls2.bytesPerActivate::256-383         6389     10.55%     92.99% # Bytes accessed per row activation
system.mem_ctrls2.bytesPerActivate::384-511         1509      2.49%     95.48% # Bytes accessed per row activation
system.mem_ctrls2.bytesPerActivate::512-639          940      1.55%     97.03% # Bytes accessed per row activation
system.mem_ctrls2.bytesPerActivate::640-767          501      0.83%     97.86% # Bytes accessed per row activation
system.mem_ctrls2.bytesPerActivate::768-895          403      0.67%     98.53% # Bytes accessed per row activation
system.mem_ctrls2.bytesPerActivate::896-1023          250      0.41%     98.94% # Bytes accessed per row activation
system.mem_ctrls2.bytesPerActivate::1024-1151          643      1.06%    100.00% # Bytes accessed per row activation
system.mem_ctrls2.bytesPerActivate::total        60564                       # Bytes accessed per row activation
system.mem_ctrls2.rdPerTurnAround::samples         9527                       # Reads before turning the bus around for writes
system.mem_ctrls2.rdPerTurnAround::mean      7.992757                       # Reads before turning the bus around for writes
system.mem_ctrls2.rdPerTurnAround::stdev    32.884768                       # Reads before turning the bus around for writes
system.mem_ctrls2.rdPerTurnAround::0-127         9522     99.95%     99.95% # Reads before turning the bus around for writes
system.mem_ctrls2.rdPerTurnAround::128-255            3      0.03%     99.98% # Reads before turning the bus around for writes
system.mem_ctrls2.rdPerTurnAround::1152-1279            1      0.01%     99.99% # Reads before turning the bus around for writes
system.mem_ctrls2.rdPerTurnAround::2816-2943            1      0.01%    100.00% # Reads before turning the bus around for writes
system.mem_ctrls2.rdPerTurnAround::total         9527                       # Reads before turning the bus around for writes
system.mem_ctrls2.wrPerTurnAround::samples         9527                       # Writes before turning the bus around for reads
system.mem_ctrls2.wrPerTurnAround::mean      6.371156                       # Writes before turning the bus around for reads
system.mem_ctrls2.wrPerTurnAround::gmean     5.951834                       # Writes before turning the bus around for reads
system.mem_ctrls2.wrPerTurnAround::stdev     2.932397                       # Writes before turning the bus around for reads
system.mem_ctrls2.wrPerTurnAround::4-7           7992     83.89%     83.89% # Writes before turning the bus around for reads
system.mem_ctrls2.wrPerTurnAround::8-11           744      7.81%     91.70% # Writes before turning the bus around for reads
system.mem_ctrls2.wrPerTurnAround::12-15          234      2.46%     94.15% # Writes before turning the bus around for reads
system.mem_ctrls2.wrPerTurnAround::16-19          557      5.85%    100.00% # Writes before turning the bus around for reads
system.mem_ctrls2.wrPerTurnAround::total         9527                       # Writes before turning the bus around for reads
system.mem_ctrls2.totQLat                  5606903912                       # Total ticks spent queuing
system.mem_ctrls2.totMemAccLat             7034828912                       # Total ticks spent from burst creation until serviced by the DRAM
system.mem_ctrls2.totBusLat                 380780000                       # Total ticks spent in databus transfers
system.mem_ctrls2.avgQLat                    73623.93                       # Average queueing delay per DRAM burst
system.mem_ctrls2.avgBusLat                   5000.00                       # Average bus latency per DRAM burst
system.mem_ctrls2.avgMemAccLat               92373.93                       # Average memory access latency per DRAM burst
system.mem_ctrls2.avgRdBW                      140.12                       # Average DRAM read bandwidth in MiByte/s
system.mem_ctrls2.avgWrBW                      111.68                       # Average achieved write bandwidth in MiByte/s
system.mem_ctrls2.avgRdBWSys                   140.15                       # Average system read bandwidth in MiByte/s
system.mem_ctrls2.avgWrBWSys                   111.68                       # Average system write bandwidth in MiByte/s
system.mem_ctrls2.peakBW                     12800.00                       # Theoretical peak bandwidth in MiByte/s
system.mem_ctrls2.busUtil                        1.97                       # Data bus utilization in percentage
system.mem_ctrls2.busUtilRead                    1.09                       # Data bus utilization in percentage for reads
system.mem_ctrls2.busUtilWrite                   0.87                       # Data bus utilization in percentage for writes
system.mem_ctrls2.avgRdQLen                      1.20                       # Average read queue length when enqueuing
system.mem_ctrls2.avgWrQLen                      2.94                       # Average write queue length when enqueuing
system.mem_ctrls2.readRowHits                   46112                       # Number of row buffer hits during reads
system.mem_ctrls2.writeRowHits                  30171                       # Number of row buffer hits during writes
system.mem_ctrls2.readRowHitRate                60.55                       # Row buffer hit rate for reads
system.mem_ctrls2.writeRowHitRate               49.71                       # Row buffer hit rate for writes
system.mem_ctrls2.avgGap                    254135.17                       # Average gap between requests
system.mem_ctrls2.pageHitRate                   55.74                       # Row buffer hit rate, read and write combined
system.mem_ctrls2.memoryStateTime::IDLE    8713803750                       # Time in different power states
system.mem_ctrls2.memoryStateTime::REF     1161420000                       # Time in different power states
system.mem_ctrls2.memoryStateTime::PRE_PDN            0                       # Time in different power states
system.mem_ctrls2.memoryStateTime::ACT    24906382250                       # Time in different power states
system.mem_ctrls2.memoryStateTime::ACT_PDN            0                       # Time in different power states
system.mem_ctrls2.actEnergy::0              229476240                       # Energy for activate commands per rank (pJ)
system.mem_ctrls2.actEnergy::1              228364920                       # Energy for activate commands per rank (pJ)
system.mem_ctrls2.preEnergy::0              125210250                       # Energy for precharge commands per rank (pJ)
system.mem_ctrls2.preEnergy::1              124603875                       # Energy for precharge commands per rank (pJ)
system.mem_ctrls2.readEnergy::0             300175200                       # Energy for read commands per rank (pJ)
system.mem_ctrls2.readEnergy::1             293748000                       # Energy for read commands per rank (pJ)
system.mem_ctrls2.writeEnergy::0            195845040                       # Energy for write commands per rank (pJ)
system.mem_ctrls2.writeEnergy::1            197445600                       # Energy for write commands per rank (pJ)
system.mem_ctrls2.refreshEnergy::0         2271737520                       # Energy for refresh commands per rank (pJ)
system.mem_ctrls2.refreshEnergy::1         2271737520                       # Energy for refresh commands per rank (pJ)
system.mem_ctrls2.actBackEnergy::0        13040883225                       # Energy for active background per rank (pJ)
system.mem_ctrls2.actBackEnergy::1        12534832665                       # Energy for active background per rank (pJ)
system.mem_ctrls2.preBackEnergy::0         9429492000                       # Energy for precharge background per rank (pJ)
system.mem_ctrls2.preBackEnergy::1         9873396000                       # Energy for precharge background per rank (pJ)
system.mem_ctrls2.totalEnergy::0          25592819475                       # Total energy per rank (pJ)
system.mem_ctrls2.totalEnergy::1          25524128580                       # Total energy per rank (pJ)
system.mem_ctrls2.averagePower::0          735.818310                       # Core power per rank (mW)
system.mem_ctrls2.averagePower::1          733.843380                       # Core power per rank (mW)
system.mem_ctrls3.bytes_read::ruby.dir_cntrl3      4849792                       # Number of bytes read from this memory
system.mem_ctrls3.bytes_read::total           4849792                       # Number of bytes read from this memory
system.mem_ctrls3.bytes_written::ruby.dir_cntrl3      3876736                       # Number of bytes written to this memory
system.mem_ctrls3.bytes_written::total        3876736                       # Number of bytes written to this memory
system.mem_ctrls3.num_reads::ruby.dir_cntrl3        75778                       # Number of read requests responded to by this memory
system.mem_ctrls3.num_reads::total              75778                       # Number of read requests responded to by this memory
system.mem_ctrls3.num_writes::ruby.dir_cntrl3        60574                       # Number of write requests responded to by this memory
system.mem_ctrls3.num_writes::total             60574                       # Number of write requests responded to by this memory
system.mem_ctrls3.bw_read::ruby.dir_cntrl3    139424969                       # Total read bandwidth from this memory (bytes/s)
system.mem_ctrls3.bw_read::total            139424969                       # Total read bandwidth from this memory (bytes/s)
system.mem_ctrls3.bw_write::ruby.dir_cntrl3    111450923                       # Write bandwidth from this memory (bytes/s)
system.mem_ctrls3.bw_write::total           111450923                       # Write bandwidth from this memory (bytes/s)
system.mem_ctrls3.bw_total::ruby.dir_cntrl3    250875892                       # Total bandwidth to/from this memory (bytes/s)
system.mem_ctrls3.bw_total::total           250875892                       # Total bandwidth to/from this memory (bytes/s)
system.mem_ctrls3.readReqs                      75778                       # Number of read requests accepted
system.mem_ctrls3.writeReqs                     60574                       # Number of write requests accepted
system.mem_ctrls3.readBursts                    75778                       # Number of DRAM read bursts, including those serviced by the write queue
system.mem_ctrls3.writeBursts                   60574                       # Number of DRAM write bursts, including those merged in the write queue
system.mem_ctrls3.bytesReadDRAM               4849216                       # Total number of bytes read from DRAM
system.mem_ctrls3.bytesReadWrQ                    576                       # Total number of bytes read from write queue
system.mem_ctrls3.bytesWritten                3876544                       # Total number of bytes written to DRAM
system.mem_ctrls3.bytesReadSys                4849792                       # Total read bytes from the system interface side
system.mem_ctrls3.bytesWrittenSys             3876736                       # Total written bytes from the system interface side
system.mem_ctrls3.servicedByWrQ                     9                       # Number of DRAM read bursts serviced by the write queue
system.mem_ctrls3.mergedWrBursts                    0                       # Number of DRAM write bursts merged with an existing one
system.mem_ctrls3.neitherReadNorWriteReqs            0                       # Number of requests that are neither read nor write
system.mem_ctrls3.perBankRdBursts::0             4296                       # Per bank write bursts
system.mem_ctrls3.perBankRdBursts::1             4700                       # Per bank write bursts
system.mem_ctrls3.perBankRdBursts::2             4410                       # Per bank write bursts
system.mem_ctrls3.perBankRdBursts::3             4858                       # Per bank write bursts
system.mem_ctrls3.perBankRdBursts::4             4718                       # Per bank write bursts
system.mem_ctrls3.perBankRdBursts::5             5224                       # Per bank write bursts
system.mem_ctrls3.perBankRdBursts::6             4865                       # Per bank write bursts
system.mem_ctrls3.perBankRdBursts::7             5141                       # Per bank write bursts
system.mem_ctrls3.perBankRdBursts::8             4904                       # Per bank write bursts
system.mem_ctrls3.perBankRdBursts::9             5081                       # Per bank write bursts
system.mem_ctrls3.perBankRdBursts::10            4509                       # Per bank write bursts
system.mem_ctrls3.perBankRdBursts::11            4721                       # Per bank write bursts
system.mem_ctrls3.perBankRdBursts::12            4467                       # Per bank write bursts
system.mem_ctrls3.perBankRdBursts::13            4509                       # Per bank write bursts
system.mem_ctrls3.perBankRdBursts::14            4638                       # Per bank write bursts
system.mem_ctrls3.perBankRdBursts::15            4728                       # Per bank write bursts
system.mem_ctrls3.perBankWrBursts::0             3557                       # Per bank write bursts
system.mem_ctrls3.perBankWrBursts::1             3514                       # Per bank write bursts
system.mem_ctrls3.perBankWrBursts::2             3548                       # Per bank write bursts
system.mem_ctrls3.perBankWrBursts::3             3695                       # Per bank write bursts
system.mem_ctrls3.perBankWrBursts::4             3800                       # Per bank write bursts
system.mem_ctrls3.perBankWrBursts::5             4094                       # Per bank write bursts
system.mem_ctrls3.perBankWrBursts::6             3825                       # Per bank write bursts
system.mem_ctrls3.perBankWrBursts::7             4095                       # Per bank write bursts
system.mem_ctrls3.perBankWrBursts::8             3946                       # Per bank write bursts
system.mem_ctrls3.perBankWrBursts::9             4025                       # Per bank write bursts
system.mem_ctrls3.perBankWrBursts::10            3593                       # Per bank write bursts
system.mem_ctrls3.perBankWrBursts::11            3588                       # Per bank write bursts
system.mem_ctrls3.perBankWrBursts::12            3707                       # Per bank write bursts
system.mem_ctrls3.perBankWrBursts::13            3828                       # Per bank write bursts
system.mem_ctrls3.perBankWrBursts::14            3916                       # Per bank write bursts
system.mem_ctrls3.perBankWrBursts::15            3840                       # Per bank write bursts
system.mem_ctrls3.numRdRetry                     1924                       # Number of times read queue was full causing retry
system.mem_ctrls3.numWrRetry                     3638                       # Number of times write queue was full causing retry
system.mem_ctrls3.totGap                  34783480000                       # Total gap between requests
system.mem_ctrls3.readPktSize::0                    0                       # Read request sizes (log2)
system.mem_ctrls3.readPktSize::1                    0                       # Read request sizes (log2)
system.mem_ctrls3.readPktSize::2                    0                       # Read request sizes (log2)
system.mem_ctrls3.readPktSize::3                    0                       # Read request sizes (log2)
system.mem_ctrls3.readPktSize::4                    0                       # Read request sizes (log2)
system.mem_ctrls3.readPktSize::5                    0                       # Read request sizes (log2)
system.mem_ctrls3.readPktSize::6                75778                       # Read request sizes (log2)
system.mem_ctrls3.writePktSize::0                   0                       # Write request sizes (log2)
system.mem_ctrls3.writePktSize::1                   0                       # Write request sizes (log2)
system.mem_ctrls3.writePktSize::2                   0                       # Write request sizes (log2)
system.mem_ctrls3.writePktSize::3                   0                       # Write request sizes (log2)
system.mem_ctrls3.writePktSize::4                   0                       # Write request sizes (log2)
system.mem_ctrls3.writePktSize::5                   0                       # Write request sizes (log2)
system.mem_ctrls3.writePktSize::6               60574                       # Write request sizes (log2)
system.mem_ctrls3.rdQLenPdf::0                  40711                       # What read queue length does an incoming req see
system.mem_ctrls3.rdQLenPdf::1                   7363                       # What read queue length does an incoming req see
system.mem_ctrls3.rdQLenPdf::2                   5558                       # What read queue length does an incoming req see
system.mem_ctrls3.rdQLenPdf::3                   4201                       # What read queue length does an incoming req see
system.mem_ctrls3.rdQLenPdf::4                   3054                       # What read queue length does an incoming req see
system.mem_ctrls3.rdQLenPdf::5                   2070                       # What read queue length does an incoming req see
system.mem_ctrls3.rdQLenPdf::6                   1471                       # What read queue length does an incoming req see
system.mem_ctrls3.rdQLenPdf::7                   1056                       # What read queue length does an incoming req see
system.mem_ctrls3.rdQLenPdf::8                    858                       # What read queue length does an incoming req see
system.mem_ctrls3.rdQLenPdf::9                    726                       # What read queue length does an incoming req see
system.mem_ctrls3.rdQLenPdf::10                   615                       # What read queue length does an incoming req see
system.mem_ctrls3.rdQLenPdf::11                   507                       # What read queue length does an incoming req see
system.mem_ctrls3.rdQLenPdf::12                   469                       # What read queue length does an incoming req see
system.mem_ctrls3.rdQLenPdf::13                   426                       # What read queue length does an incoming req see
system.mem_ctrls3.rdQLenPdf::14                   382                       # What read queue length does an incoming req see
system.mem_ctrls3.rdQLenPdf::15                   370                       # What read queue length does an incoming req see
system.mem_ctrls3.rdQLenPdf::16                   350                       # What read queue length does an incoming req see
system.mem_ctrls3.rdQLenPdf::17                   330                       # What read queue length does an incoming req see
system.mem_ctrls3.rdQLenPdf::18                   315                       # What read queue length does an incoming req see
system.mem_ctrls3.rdQLenPdf::19                   317                       # What read queue length does an incoming req see
system.mem_ctrls3.rdQLenPdf::20                   290                       # What read queue length does an incoming req see
system.mem_ctrls3.rdQLenPdf::21                   284                       # What read queue length does an incoming req see
system.mem_ctrls3.rdQLenPdf::22                   246                       # What read queue length does an incoming req see
system.mem_ctrls3.rdQLenPdf::23                   232                       # What read queue length does an incoming req see
system.mem_ctrls3.rdQLenPdf::24                   225                       # What read queue length does an incoming req see
[...]
system.ruby.L2Cache_Controller.MT_IIB.WB_Data::total       189662                      
system.ruby.L2Cache_Controller.MT_IIB.WB_Data_clean |         895      3.25%      3.25% |         893      3.24%      6.50% |         879      3.19%      9.69% |         869      3.16%     12.85% |         869      3.16%     16.00% |         862      3.13%     19.13% |         878      3.19%     22.32% |         878      3.19%     25.51% |         860      3.12%     28.64% |         837      3.04%     31.68% |         874      3.18%     34.85% |         847      3.08%     37.93% |         855      3.11%     41.04% |         847      3.08%     44.11% |         864      3.14%     47.25% |         843      3.06%     50.32% |         847      3.08%     53.39% |         874      3.18%     56.57% |         832      3.02%     59.59% |         854      3.10%     62.69% |         834      3.03%     65.72% |         846      3.07%     68.80% |         875      3.18%     71.98% |         805      2.92%     74.90% |         832      3.02%     77.92% |         845      3.07%     80.99% |         836      3.04%     84.03% |         820      2.98%     87.01% |         884      3.21%     90.22% |         888      3.23%     93.45% |         900      3.27%     96.72% |         904      3.28%    100.00%
system.ruby.L2Cache_Controller.MT_IIB.WB_Data_clean::total        27526                      
system.ruby.L2Cache_Controller.MT_IIB.Unblock |         388      2.01%      2.01% |         456      2.36%      4.37% |         460      2.38%      6.75% |         543      2.81%      9.56% |         537      2.78%     12.33% |         481      2.49%     14.82% |         476      2.46%     17.28% |         520      2.69%     19.97% |         753      3.90%     23.87% |         630      3.26%     27.13% |         642      3.32%     30.45% |         635      3.29%     33.74% |         559      2.89%     36.63% |         606      3.14%     39.76% |         679      3.51%     43.27% |         581      3.01%     46.28% |         534      2.76%     49.04% |         581      3.01%     52.05% |         524      2.71%     54.76% |         635      3.29%     58.04% |         824      4.26%     62.31% |         661      3.42%     65.73% |         684      3.54%     69.27% |         853      4.41%     73.68% |         811      4.20%     77.87% |         628      3.25%     81.12% |         727      3.76%     84.88% |         804      4.16%     89.04% |         587      3.04%     92.08% |         531      2.75%     94.83% |         505      2.61%     97.44% |         495      2.56%    100.00%
system.ruby.L2Cache_Controller.MT_IIB.Unblock::total        19330                      
system.ruby.L2Cache_Controller.MT_IB.L1_GETS |           2      8.33%      8.33% |           0      0.00%      8.33% |           0      0.00%      8.33% |           0      0.00%      8.33% |           1      4.17%     12.50% |           0      0.00%     12.50% |           1      4.17%     16.67% |           1      4.17%     20.83% |           1      4.17%     25.00% |           1      4.17%     29.17% |           1      4.17%     33.33% |           1      4.17%     37.50% |           2      8.33%     45.83% |           0      0.00%     45.83% |           3     12.50%     58.33% |           1      4.17%     62.50% |           0      0.00%     62.50% |           0      0.00%     62.50% |           0      0.00%     62.50% |           1      4.17%     66.67% |           1      4.17%     70.83% |           0      0.00%     70.83% |           2      8.33%     79.17% |           1      4.17%     83.33% |           0      0.00%     83.33% |           2      8.33%     91.67% |           0      0.00%     91.67% |           0      0.00%     91.67% |           1      4.17%     95.83% |           1      4.17%    100.00% |           0      0.00%    100.00% |           0      0.00%    100.00%
system.ruby.L2Cache_Controller.MT_IB.L1_GETS::total           24                      
system.ruby.L2Cache_Controller.MT_IB.L1_GETX |           0      0.00%      0.00% |           0      0.00%      0.00% |           1      6.25%      6.25% |           1      6.25%     12.50% |           0      0.00%     12.50% |           0      0.00%     12.50% |           1      6.25%     18.75% |           0      0.00%     18.75% |           1      6.25%     25.00% |           2     12.50%     37.50% |           1      6.25%     43.75% |           0      0.00%     43.75% |           0      0.00%     43.75% |           2     12.50%     56.25% |           0      0.00%     56.25% |           0      0.00%     56.25% |           1      6.25%     62.50% |           1      6.25%     68.75% |           0      0.00%     68.75% |           0      0.00%     68.75% |           1      6.25%     75.00% |           0      0.00%     75.00% |           0      0.00%     75.00% |           1      6.25%     81.25% |           0      0.00%     81.25% |           0      0.00%     81.25% |           1      6.25%     87.50% |           1      6.25%     93.75% |           0      0.00%     93.75% |           0      0.00%     93.75% |           1      6.25%    100.00% |           0      0.00%    100.00%
system.ruby.L2Cache_Controller.MT_IB.L1_GETX::total           16                      
system.ruby.L2Cache_Controller.MT_IB.L1_UPGRADE |           9      2.47%      2.47% |           9      2.47%      4.95% |           4      1.10%      6.04% |          10      2.75%      8.79% |          12      3.30%     12.09% |           8      2.20%     14.29% |           8      2.20%     16.48% |          10      2.75%     19.23% |          11      3.02%     22.25% |          15      4.12%     26.37% |          13      3.57%     29.95% |          19      5.22%     35.16% |           7      1.92%     37.09% |          14      3.85%     40.93% |          12      3.30%     44.23% |          14      3.85%     48.08% |           7      1.92%     50.00% |          10      2.75%     52.75% |           8      2.20%     54.95% |           9      2.47%     57.42% |           9      2.47%     59.89% |           7      1.92%     61.81% |          15      4.12%     65.93% |          18      4.95%     70.88% |          23      6.32%     77.20% |          13      3.57%     80.77% |          14      3.85%     84.62% |          15      4.12%     88.74% |           9      2.47%     91.21% |          12      3.30%     94.51% |           9      2.47%     96.98% |          11      3.02%    100.00%
system.ruby.L2Cache_Controller.MT_IB.L1_UPGRADE::total          364                      
system.ruby.L2Cache_Controller.MT_IB.WB_Data |         361      2.07%      2.07% |         420      2.40%      4.47% |         419      2.40%      6.87% |         482      2.76%      9.63% |         489      2.80%     12.43% |         429      2.46%     14.88% |         430      2.46%     17.35% |         468      2.68%     20.03% |         673      3.85%     23.88% |         586      3.35%     27.23% |         580      3.32%     30.55% |         572      3.27%     33.83% |         498      2.85%     36.68% |         532      3.05%     39.72% |         617      3.53%     43.26% |         519      2.97%     46.23% |         476      2.72%     48.95% |         532      3.05%     52.00% |         479      2.74%     54.74% |         567      3.25%     57.99% |         737      4.22%     62.21% |         597      3.42%     65.62% |         629      3.60%     69.22% |         785      4.49%     73.72% |         734      4.20%     77.92% |         562      3.22%     81.14% |         653      3.74%     84.88% |         733      4.20%     89.07% |         536      3.07%     92.14% |         476      2.72%     94.86% |         451      2.58%     97.45% |         446      2.55%    100.00%
system.ruby.L2Cache_Controller.MT_IB.WB_Data::total        17468                      
system.ruby.L2Cache_Controller.MT_IB.WB_Data_clean |          27      1.45%      1.45% |          36      1.93%      3.38% |          41      2.20%      5.59% |          61      3.28%      8.86% |          48      2.58%     11.44% |          52      2.79%     14.23% |          46      2.47%     16.70% |          52      2.79%     19.50% |          80      4.30%     23.79% |          44      2.36%     26.15% |          62      3.33%     29.48% |          63      3.38%     32.87% |          61      3.28%     36.14% |          74      3.97%     40.12% |          62      3.33%     43.45% |          62      3.33%     46.78% |          58      3.11%     49.89% |          49      2.63%     52.52% |          45      2.42%     54.94% |          68      3.65%     58.59% |          87      4.67%     63.27% |          64      3.44%     66.70% |          55      2.95%     69.66% |          68      3.65%     73.31% |          77      4.14%     77.44% |          66      3.54%     80.99% |          74      3.97%     84.96% |          71      3.81%     88.78% |          51      2.74%     91.51% |          55      2.95%     94.47% |          54      2.90%     97.37% |          49      2.63%    100.00%
system.ruby.L2Cache_Controller.MT_IB.WB_Data_clean::total         1862                      
system.ruby.L2Cache_Controller.MT_SB.L1_GETS |          12      2.13%      2.13% |          20      3.55%      5.68% |          16      2.84%      8.53% |          14      2.49%     11.01% |          12      2.13%     13.14% |          17      3.02%     16.16% |          14      2.49%     18.65% |          14      2.49%     21.14% |          20      3.55%     24.69% |          22      3.91%     28.60% |          15      2.66%     31.26% |          17      3.02%     34.28% |          14      2.49%     36.77% |          20      3.55%     40.32% |          18      3.20%     43.52% |          12      2.13%     45.65% |          17      3.02%     48.67% |          15      2.66%     51.33% |          13      2.31%     53.64% |          26      4.62%     58.26% |          15      2.66%     60.92% |          21      3.73%     64.65% |          20      3.55%     68.21% |          20      3.55%     71.76% |          23      4.09%     75.84% |          21      3.73%     79.57% |          20      3.55%     83.13% |          15      2.66%     85.79% |          13      2.31%     88.10% |          18      3.20%     91.30% |          24      4.26%     95.56% |          25      4.44%    100.00%
system.ruby.L2Cache_Controller.MT_SB.L1_GETS::total          563                      
system.ruby.L2Cache_Controller.MT_SB.L1_GETX |          19      3.12%      3.12% |          16      2.63%      5.76% |          15      2.47%      8.22% |          11      1.81%     10.03% |          19      3.12%     13.16% |          18      2.96%     16.12% |          20      3.29%     19.41% |          18      2.96%     22.37% |          20      3.29%     25.66% |          15      2.47%     28.12% |          27      4.44%     32.57% |          20      3.29%     35.86% |          15      2.47%     38.32% |          13      2.14%     40.46% |          26      4.28%     44.74% |          28      4.61%     49.34% |          18      2.96%     52.30% |          14      2.30%     54.61% |          15      2.47%     57.07% |          30      4.93%     62.01% |          27      4.44%     66.45% |          17      2.80%     69.24% |          22      3.62%     72.86% |          25      4.11%     76.97% |          16      2.63%     79.61% |          23      3.78%     83.39% |          17      2.80%     86.18% |          14      2.30%     88.49% |          20      3.29%     91.78% |          17      2.80%     94.57% |          16      2.63%     97.20% |          17      2.80%    100.00%
system.ruby.L2Cache_Controller.MT_SB.L1_GETX::total          608                      
system.ruby.L2Cache_Controller.MT_SB.L1_UPGRADE |          11      2.58%      2.58% |          14      3.29%      5.87% |          15      3.52%      9.39% |          12      2.82%     12.21% |          10      2.35%     14.55% |          12      2.82%     17.37% |          17      3.99%     21.36% |          10      2.35%     23.71% |          11      2.58%     26.29% |          13      3.05%     29.34% |           9      2.11%     31.46% |          14      3.29%     34.74% |          20      4.69%     39.44% |          12      2.82%     42.25% |           6      1.41%     43.66% |          12      2.82%     46.48% |          20      4.69%     51.17% |          16      3.76%     54.93% |          18      4.23%     59.15% |          15      3.52%     62.68% |           9      2.11%     64.79% |          12      2.82%     67.61% |          17      3.99%     71.60% |          18      4.23%     75.82% |          13      3.05%     78.87% |          14      3.29%     82.16% |           9      2.11%     84.27% |          13      3.05%     87.32% |          13      3.05%     90.38% |          13      3.05%     93.43% |          14      3.29%     96.71% |          14      3.29%    100.00%
system.ruby.L2Cache_Controller.MT_SB.L1_UPGRADE::total          426                      
system.ruby.L2Cache_Controller.MT_SB.Unblock |        7077      3.26%      3.26% |        6903      3.18%      6.44% |        6880      3.17%      9.60% |        6875      3.17%     12.77% |        6957      3.20%     15.97% |        6903      3.18%     19.15% |        6902      3.18%     22.33% |        6899      3.18%     25.51% |        6808      3.13%     28.64% |        6637      3.06%     31.70% |        6723      3.10%     34.79% |        6647      3.06%     37.85% |        7013      3.23%     41.08% |        6738      3.10%     44.18% |        6672      3.07%     47.26% |        6755      3.11%     50.37% |        7008      3.23%     53.59% |        6852      3.15%     56.75% |        6750      3.11%     59.86% |        6708      3.09%     62.94% |        6634      3.05%     66.00% |        6704      3.09%     69.09% |        6656      3.06%     72.15% |        6394      2.94%     75.09% |        6654      3.06%     78.16% |        6698      3.08%     81.24% |        6663      3.07%     84.31% |        6446      2.97%     87.28% |        6959      3.20%     90.48% |        6837      3.15%     93.63% |        6919      3.19%     96.82% |        6917      3.18%    100.00%
system.ruby.L2Cache_Controller.MT_SB.Unblock::total       217188                      
system.ruby.SimicsNetworkPortInterface_Controller.MessageSend |      282074     18.12%     18.12% |      778350     50.00%     68.12% |       17465      1.12%     69.24% |       18894      1.21%     70.46% |       17791      1.14%     71.60% |       19080      1.23%     72.82% |       18077      1.16%     73.99% |       19943      1.28%     75.27% |       15404      0.99%     76.26% |       16482      1.06%     77.31% |       15447      0.99%     78.31% |       16580      1.07%     79.37% |       17581      1.13%     80.50% |       15950      1.02%     81.53% |       14671      0.94%     82.47% |       15792      1.01%     83.48% |       16402      1.05%     84.54% |       18390      1.18%     85.72% |       16287      1.05%     86.76% |       15831      1.02%     87.78% |       14902      0.96%     88.74% |       14963      0.96%     89.70% |       14547      0.93%     90.63% |       14263      0.92%     91.55% |       15829      1.02%     92.57% |       16237      1.04%     93.61% |       15529      1.00%     94.61% |       14733      0.95%     95.55% |       16439      1.06%     96.61% |       18239      1.17%     97.78% |       16979      1.09%     98.87% |       17549      1.13%    100.00%
system.ruby.SimicsNetworkPortInterface_Controller.MessageSend::total      1556700                      
system.ruby.SimicsNetworkPortInterface_Controller.MessageRecv |      282074     18.12%     18.12% |      778350     50.00%     68.12% |       17465      1.12%     69.24% |       18894      1.21%     70.46% |       17791      1.14%     71.60% |       19080      1.23%     72.82% |       18077      1.16%     73.99% |       19943      1.28%     75.27% |       15404      0.99%     76.26% |       16482      1.06%     77.31% |       15447      0.99%     78.31% |       16580      1.07%     79.37% |       17581      1.13%     80.50% |       15950      1.02%     81.53% |       14671      0.94%     82.47% |       15792      1.01%     83.48% |       16402      1.05%     84.54% |       18390      1.18%     85.72% |       16287      1.05%     86.76% |       15831      1.02%     87.78% |       14902      0.96%     88.74% |       14963      0.96%     89.70% |       14547      0.93%     90.63% |       14263      0.92%     91.55% |       15829      1.02%     92.57% |       16237      1.04%     93.61% |       15529      1.00%     94.61% |       14733      0.95%     95.55% |       16439      1.06%     96.61% |       18239      1.17%     97.78% |       16979      1.09%     98.87% |       17549      1.13%    100.00%
system.ruby.SimicsNetworkPortInterface_Controller.MessageRecv::total      1556700                      
system.ruby.SimicsNetworkPortInterface_Controller.A.MessageSend |      282074     18.12%     18.12% |      778350     50.00%     68.12% |       17465      1.12%     69.24% |       18894      1.21%     70.46% |       17791      1.14%     71.60% |       19080      1.23%     72.82% |       18077      1.16%     73.99% |       19943      1.28%     75.27% |       15404      0.99%     76.26% |       16482      1.06%     77.31% |       15447      0.99%     78.31% |       16580      1.07%     79.37% |       17581      1.13%     80.50% |       15950      1.02%     81.53% |       14671      0.94%     82.47% |       15792      1.01%     83.48% |       16402      1.05%     84.54% |       18390      1.18%     85.72% |       16287      1.05%     86.76% |       15831      1.02%     87.78% |       14902      0.96%     88.74% |       14963      0.96%     89.70% |       14547      0.93%     90.63% |       14263      0.92%     91.55% |       15829      1.02%     92.57% |       16237      1.04%     93.61% |       15529      1.00%     94.61% |       14733      0.95%     95.55% |       16439      1.06%     96.61% |       18239      1.17%     97.78% |       16979      1.09%     98.87% |       17549      1.13%    100.00%
system.ruby.SimicsNetworkPortInterface_Controller.A.MessageSend::total      1556700                      
system.ruby.SimicsNetworkPortInterface_Controller.A.MessageRecv |      282074     18.12%     18.12% |      778350     50.00%     68.12% |       17465      1.12%     69.24% |       18894      1.21%     70.46% |       17791      1.14%     71.60% |       19080      1.23%     72.82% |       18077      1.16%     73.99% |       19943      1.28%     75.27% |       15404      0.99%     76.26% |       16482      1.06%     77.31% |       15447      0.99%     78.31% |       16580      1.07%     79.37% |       17581      1.13%     80.50% |       15950      1.02%     81.53% |       14671      0.94%     82.47% |       15792      1.01%     83.48% |       16402      1.05%     84.54% |       18390      1.18%     85.72% |       16287      1.05%     86.76% |       15831      1.02%     87.78% |       14902      0.96%     88.74% |       14963      0.96%     89.70% |       14547      0.93%     90.63% |       14263      0.92%     91.55% |       15829      1.02%     92.57% |       16237      1.04%     93.61% |       15529      1.00%     94.61% |       14733      0.95%     95.55% |       16439      1.06%     96.61% |       18239      1.17%     97.78% |       16979      1.09%     98.87% |       17549      1.13%    100.00%
system.ruby.SimicsNetworkPortInterface_Controller.A.MessageRecv::total      1556700                      
system.switch_cpus.kern.inst.arm                    0                       # number of arm instructions executed
system.switch_cpus.kern.inst.quiesce                0                       # number of quiesce instructions executed

---------- End Simulation Statistics   ----------
