
---------- Begin Simulation Statistics ----------
sim_seconds                                  0.093589                       # Number of seconds simulated
sim_ticks                                 93589107000                       # Number of ticks simulated
final_tick                               5269757185500                       # Number of ticks from beginning of simulation (restored from checkpoints and never reset)
sim_freq                                 1000000000000                       # Frequency of simulated ticks
host_inst_rate                                  51738                       # Simulator instruction rate (inst/s)
host_op_rate                                    91185                       # Simulator op (including micro ops) rate (op/s)
host_tick_rate                              112916746                       # Simulator tick rate (ticks/s)
host_mem_usage                                6506972                       # Number of bytes of host memory used
host_seconds                                   828.83                       # Real time elapsed on the host
sim_insts                                    42882005                       # Number of instructions simulated
sim_ops                                      75576896                       # Number of ops (including micro ops) simulated
system.voltage_domain.voltage                       1                       # Voltage in Volts
system.clk_domain.clock                           500                       # Clock period in ticks
system.mem_ctrls0.bytes_read::ruby.dir_cntrl0     21124544                       # Number of bytes read from this memory
system.mem_ctrls0.bytes_read::total          21124544                       # Number of bytes read from this memory
system.mem_ctrls0.bytes_written::ruby.dir_cntrl0     11912832                       # Number of bytes written to this memory
system.mem_ctrls0.bytes_written::total       11912832                       # Number of bytes written to this memory
system.mem_ctrls0.num_reads::ruby.dir_cntrl0       330071                       # Number of read requests responded to by this memory
system.mem_ctrls0.num_reads::total             330071                       # Number of read requests responded to by this memory
system.mem_ctrls0.num_writes::ruby.dir_cntrl0       186138                       # Number of write requests responded to by this memory
system.mem_ctrls0.num_writes::total            186138                       # Number of write requests responded to by this memory
system.mem_ctrls0.bw_read::ruby.dir_cntrl0    225715841                       # Total read bandwidth from this memory (bytes/s)
system.mem_ctrls0.bw_read::total            225715841                       # Total read bandwidth from this memory (bytes/s)
system.mem_ctrls0.bw_write::ruby.dir_cntrl0    127288660                       # Write bandwidth from this memory (bytes/s)
system.mem_ctrls0.bw_write::total           127288660                       # Write bandwidth from this memory (bytes/s)
system.mem_ctrls0.bw_total::ruby.dir_cntrl0    353004501                       # Total bandwidth to/from this memory (bytes/s)
system.mem_ctrls0.bw_total::total           353004501                       # Total bandwidth to/from this memory (bytes/s)
system.mem_ctrls0.readReqs                     330071                       # Number of read requests accepted
system.mem_ctrls0.writeReqs                    186138                       # Number of write requests accepted
system.mem_ctrls0.readBursts                   330071                       # Number of DRAM read bursts, including those serviced by the write queue
system.mem_ctrls0.writeBursts                  186138                       # Number of DRAM write bursts, including those merged in the write queue
system.mem_ctrls0.bytesReadDRAM              21121856                       # Total number of bytes read from DRAM
system.mem_ctrls0.bytesReadWrQ                   2688                       # Total number of bytes read from write queue
system.mem_ctrls0.bytesWritten               11912704                       # Total number of bytes written to DRAM
system.mem_ctrls0.bytesReadSys               21124544                       # Total read bytes from the system interface side
system.mem_ctrls0.bytesWrittenSys            11912832                       # Total written bytes from the system interface side
system.mem_ctrls0.servicedByWrQ                    42                       # Number of DRAM read bursts serviced by the write queue
system.mem_ctrls0.mergedWrBursts                    0                       # Number of DRAM write bursts merged with an existing one
system.mem_ctrls0.neitherReadNorWriteReqs            0                       # Number of requests that are neither read nor write
system.mem_ctrls0.perBankRdBursts::0            20326                       # Per bank write bursts
system.mem_ctrls0.perBankRdBursts::1            21017                       # Per bank write bursts
system.mem_ctrls0.perBankRdBursts::2            20499                       # Per bank write bursts
system.mem_ctrls0.perBankRdBursts::3            20883                       # Per bank write bursts
system.mem_ctrls0.perBankRdBursts::4            20514                       # Per bank write bursts
system.mem_ctrls0.perBankRdBursts::5            21086                       # Per bank write bursts
system.mem_ctrls0.perBankRdBursts::6            20628                       # Per bank write bursts
system.mem_ctrls0.perBankRdBursts::7            20706                       # Per bank write bursts
system.mem_ctrls0.perBankRdBursts::8            20689                       # Per bank write bursts
system.mem_ctrls0.perBankRdBursts::9            20894                       # Per bank write bursts
system.mem_ctrls0.perBankRdBursts::10           20592                       # Per bank write bursts
system.mem_ctrls0.perBankRdBursts::11           20958                       # Per bank write bursts
system.mem_ctrls0.perBankRdBursts::12           20246                       # Per bank write bursts
system.mem_ctrls0.perBankRdBursts::13           20147                       # Per bank write bursts
system.mem_ctrls0.perBankRdBursts::14           20456                       # Per bank write bursts
system.mem_ctrls0.perBankRdBursts::15           20388                       # Per bank write bursts
system.mem_ctrls0.perBankWrBursts::0            11507                       # Per bank write bursts
system.mem_ctrls0.perBankWrBursts::1            11661                       # Per bank write bursts
system.mem_ctrls0.perBankWrBursts::2            11663                       # Per bank write bursts
system.mem_ctrls0.perBankWrBursts::3            11653                       # Per bank write bursts
system.mem_ctrls0.perBankWrBursts::4            11605                       # Per bank write bursts
system.mem_ctrls0.perBankWrBursts::5            11918                       # Per bank write bursts
system.mem_ctrls0.perBankWrBursts::6            11560                       # Per bank write bursts
system.mem_ctrls0.perBankWrBursts::7            11686                       # Per bank write bursts
system.mem_ctrls0.perBankWrBursts::8            11903                       # Per bank write bursts
system.mem_ctrls0.perBankWrBursts::9            11724                       # Per bank write bursts
system.mem_ctrls0.perBankWrBursts::10           11529                       # Per bank write bursts
system.mem_ctrls0.perBankWrBursts::11           11708                       # Per bank write bursts
system.mem_ctrls0.perBankWrBursts::12           11351                       # Per bank write bursts
system.mem_ctrls0.perBankWrBursts::13           11318                       # Per bank write bursts
system.mem_ctrls0.perBankWrBursts::14           11752                       # Per bank write bursts
system.mem_ctrls0.perBankWrBursts::15           11598                       # Per bank write bursts
system.mem_ctrls0.numRdRetry                     6303                       # Number of times read queue was full causing retry
system.mem_ctrls0.numWrRetry                     2900                       # Number of times write queue was full causing retry
system.mem_ctrls0.totGap                  93588545500                       # Total gap between requests
system.mem_ctrls0.readPktSize::0                    0                       # Read request sizes (log2)
system.mem_ctrls0.readPktSize::1                    0                       # Read request sizes (log2)
system.mem_ctrls0.readPktSize::2                    0                       # Read request sizes (log2)
system.mem_ctrls0.readPktSize::3                    0                       # Read request sizes (log2)
system.mem_ctrls0.readPktSize::4                    0                       # Read request sizes (log2)
system.mem_ctrls0.readPktSize::5                    0                       # Read request sizes (log2)
system.mem_ctrls0.readPktSize::6               330071                       # Read request sizes (log2)
system.mem_ctrls0.writePktSize::0                   0                       # Write request sizes (log2)
system.mem_ctrls0.writePktSize::1                   0                       # Write request sizes (log2)
system.mem_ctrls0.writePktSize::2                   0                       # Write request sizes (log2)
system.mem_ctrls0.writePktSize::3                   0                       # Write request sizes (log2)
system.mem_ctrls0.writePktSize::4                   0                       # Write request sizes (log2)
system.mem_ctrls0.writePktSize::5                   0                       # Write request sizes (log2)
system.mem_ctrls0.writePktSize::6              186138                       # Write request sizes (log2)
system.mem_ctrls0.rdQLenPdf::0                 152154                       # What read queue length does an incoming req see
system.mem_ctrls0.rdQLenPdf::1                  34019                       # What read queue length does an incoming req see
system.mem_ctrls0.rdQLenPdf::2                  26723                       # What read queue length does an incoming req see
system.mem_ctrls0.rdQLenPdf::3                  20054                       # What read queue length does an incoming req see
system.mem_ctrls0.rdQLenPdf::4                  15358                       # What read queue length does an incoming req see
system.mem_ctrls0.rdQLenPdf::5                  12417                       # What read queue length does an incoming req see
system.mem_ctrls0.rdQLenPdf::6                   9888                       # What read queue length does an incoming req see
system.mem_ctrls0.rdQLenPdf::7                   8044                       # What read queue length does an incoming req see
system.mem_ctrls0.rdQLenPdf::8                   6517                       # What read queue length does an incoming req see
system.mem_ctrls0.rdQLenPdf::9                   5355                       # What read queue length does an incoming req see
system.mem_ctrls0.rdQLenPdf::10                  4437                       # What read queue length does an incoming req see
system.mem_ctrls0.rdQLenPdf::11                  3863                       # What read queue length does an incoming req see
system.mem_ctrls0.rdQLenPdf::12                  3194                       # What read queue length does an incoming req see
system.mem_ctrls0.rdQLenPdf::13                  2683                       # What read queue length does an incoming req see
system.mem_ctrls0.rdQLenPdf::14                  2258                       # What read queue length does an incoming req see
system.mem_ctrls0.rdQLenPdf::15                  1928                       # What read queue length does an incoming req see
system.mem_ctrls0.rdQLenPdf::16                  1709                       # What read queue length does an incoming req see
system.mem_ctrls0.rdQLenPdf::17                  1575                       # What read queue length does an incoming req see
system.mem_ctrls0.rdQLenPdf::18                  1404                       # What read queue length does an incoming req see
system.mem_ctrls0.rdQLenPdf::19                  1270                       # What read queue length does an incoming req see
system.mem_ctrls0.rdQLenPdf::20                  1111                       # What read queue length does an incoming req see
system.mem_ctrls0.rdQLenPdf::21                  1017                       # What read queue length does an incoming req see
system.mem_ctrls0.rdQLenPdf::22                   934                       # What read queue length does an incoming req see
system.mem_ctrls0.rdQLenPdf::23                   815                       # What read queue length does an incoming req see
system.mem_ctrls0.rdQLenPdf::24                   777                       # What read queue length does an incoming req see
system.mem_ctrls0.rdQLenPdf::25                   705                       # What read queue length does an incoming req see
system.mem_ctrls0.rdQLenPdf::26                   640                       # What read queue length does an incoming req see
system.mem_ctrls0.rdQLenPdf::27                   599                       # What read queue length does an incoming req see
system.mem_ctrls0.rdQLenPdf::28                   581                       # What read queue length does an incoming req see
system.mem_ctrls0.rdQLenPdf::29                   513                       # What read queue length does an incoming req see
system.mem_ctrls0.rdQLenPdf::30                   555                       # What read queue length does an incoming req see
system.mem_ctrls0.rdQLenPdf::31                  6932                       # What read queue length does an incoming req see
system.mem_ctrls0.wrQLenPdf::0                  32500                       # What write queue length does an incoming req see
system.mem_ctrls0.wrQLenPdf::1                  34649                       # What write queue length does an incoming req see
system.mem_ctrls0.wrQLenPdf::2                  35510                       # What write queue length does an incoming req see
system.mem_ctrls0.wrQLenPdf::3                  35650                       # What write queue length does an incoming req see
system.mem_ctrls0.wrQLenPdf::4                  35229                       # What write queue length does an incoming req see
system.mem_ctrls0.wrQLenPdf::5                   4241                       # What write queue length does an incoming req see
system.mem_ctrls0.wrQLenPdf::6                   3274                       # What write queue length does an incoming req see
system.mem_ctrls0.wrQLenPdf::7                   5085                       # What write queue length does an incoming req see
system.mem_ctrls0.bytesPerActivate::samples       147477                       # Bytes accessed per row activation
system.mem_ctrls0.bytesPerActivate::mean   223.992406                       # Bytes accessed per row activation
system.mem_ctrls0.bytesPerActivate::gmean   166.682011                       # Bytes accessed per row activation
system.mem_ctrls0.bytesPerActivate::stdev   187.873694                       # Bytes accessed per row activation
system.mem_ctrls0.bytesPerActivate::0-127        44411     30.11%     30.11% # Bytes accessed per row activation
system.mem_ctrls0.bytesPerActivate::128-255        42731     28.97%     59.09% # Bytes accessed per row activation
system.mem_ctrls0.bytesPerActivate::256-383        42170     28.59%     87.68% # Bytes accessed per row activation
system.mem_ctrls0.bytesPerActivate::384-511         6807      4.62%     92.30% # Bytes accessed per row activation
system.mem_ctrls0.bytesPerActivate::512-639         4313      2.92%     95.22% # Bytes accessed per row activation
system.mem_ctrls0.bytesPerActivate::640-767         2172      1.47%     96.70% # Bytes accessed per row activation
system.mem_ctrls0.bytesPerActivate::768-895         1568      1.06%     97.76% # Bytes accessed per row activation
system.mem_ctrls0.bytesPerActivate::896-1023         1071      0.73%     98.49% # Bytes accessed per row activation
system.mem_ctrls0.bytesPerActivate::1024-1151         2234      1.51%    100.00% # Bytes accessed per row activation
system.mem_ctrls0.bytesPerActivate::total       147477                       # Bytes accessed per row activation
system.mem_ctrls0.rdPerTurnAround::samples        32811                       # Reads before turning the bus around for writes
system.mem_ctrls0.rdPerTurnAround::mean     10.058365                       # Reads before turning the bus around for writes
system.mem_ctrls0.rdPerTurnAround::stdev    24.428582                       # Reads before turning the bus around for writes
system.mem_ctrls0.rdPerTurnAround::0-127        32802     99.97%     99.97% # Reads before turning the bus around for writes
system.mem_ctrls0.rdPerTurnAround::128-255            8      0.02%    100.00% # Reads before turning the bus around for writes
system.mem_ctrls0.rdPerTurnAround::3968-4095            1      0.00%    100.00% # Reads before turning the bus around for writes
system.mem_ctrls0.rdPerTurnAround::total        32811                       # Reads before turning the bus around for writes
system.mem_ctrls0.wrPerTurnAround::samples        32811                       # Writes before turning the bus around for reads
system.mem_ctrls0.wrPerTurnAround::mean      5.672976                       # Writes before turning the bus around for reads
system.mem_ctrls0.wrPerTurnAround::gmean     5.486471                       # Writes before turning the bus around for reads
system.mem_ctrls0.wrPerTurnAround::stdev     1.876652                       # Writes before turning the bus around for reads
system.mem_ctrls0.wrPerTurnAround::4-7          29842     90.95%     90.95% # Writes before turning the bus around for reads
system.mem_ctrls0.wrPerTurnAround::8-11          1995      6.08%     97.03% # Writes before turning the bus around for reads
system.mem_ctrls0.wrPerTurnAround::12-15          570      1.74%     98.77% # Writes before turning the bus around for reads
system.mem_ctrls0.wrPerTurnAround::16-19          404      1.23%    100.00% # Writes before turning the bus around for reads
system.mem_ctrls0.wrPerTurnAround::total        32811                       # Writes before turning the bus around for reads
system.mem_ctrls0.totQLat                 15573577469                       # Total ticks spent queuing
system.mem_ctrls0.totMemAccLat            21761621219                       # Total ticks spent from burst creation until serviced by the DRAM
system.mem_ctrls0.totBusLat                1650145000                       # Total ticks spent in databus transfers
system.mem_ctrls0.avgQLat                    47188.51                       # Average queueing delay per DRAM burst
system.mem_ctrls0.avgBusLat                   5000.00                       # Average bus latency per DRAM burst
system.mem_ctrls0.avgMemAccLat               65938.51                       # Average memory access latency per DRAM burst
system.mem_ctrls0.avgRdBW                      225.69                       # Average DRAM read bandwidth in MiByte/s
system.mem_ctrls0.avgWrBW                      127.29                       # Average achieved write bandwidth in MiByte/s
system.mem_ctrls0.avgRdBWSys                   225.72                       # Average system read bandwidth in MiByte/s
system.mem_ctrls0.avgWrBWSys                   127.29                       # Average system write bandwidth in MiByte/s
system.mem_ctrls0.peakBW                     12800.00                       # Theoretical peak bandwidth in MiByte/s
system.mem_ctrls0.busUtil                        2.76                       # Data bus utilization in percentage
system.mem_ctrls0.busUtilRead                    1.76                       # Data bus utilization in percentage for reads
system.mem_ctrls0.busUtilWrite                   0.99                       # Data bus utilization in percentage for writes
system.mem_ctrls0.avgRdQLen                      1.26                       # Average read queue length when enqueuing
system.mem_ctrls0.avgWrQLen                      2.97                       # Average write queue length when enqueuing
system.mem_ctrls0.readRowHits                  253180                       # Number of row buffer hits during reads
system.mem_ctrls0.writeRowHits                 115497                       # Number of row buffer hits during writes
system.mem_ctrls0.readRowHitRate                76.71                       # Row buffer hit rate for reads
system.mem_ctrls0.writeRowHitRate               62.05                       # Row buffer hit rate for writes
system.mem_ctrls0.avgGap                    181299.72                       # Average gap between requests
system.mem_ctrls0.pageHitRate                   71.43                       # Row buffer hit rate, read and write combined
system.mem_ctrls0.memoryStateTime::IDLE   15197190500                       # Time in different power states
system.mem_ctrls0.memoryStateTime::REF     3124940000                       # Time in different power states
system.mem_ctrls0.memoryStateTime::PRE_PDN            0                       # Time in different power states
system.mem_ctrls0.memoryStateTime::ACT    75263893500                       # Time in different power states
system.mem_ctrls0.memoryStateTime::ACT_PDN            0                       # Time in different power states
system.mem_ctrls0.actEnergy::0              562819320                       # Energy for activate commands per rank (pJ)
system.mem_ctrls0.actEnergy::1              552000960                       # Energy for activate commands per rank (pJ)
system.mem_ctrls0.preEnergy::0              307093875                       # Energy for precharge commands per rank (pJ)
system.mem_ctrls0.preEnergy::1              301191000                       # Energy for precharge commands per rank (pJ)
system.mem_ctrls0.readEnergy::0            1292062200                       # Energy for read commands per rank (pJ)
system.mem_ctrls0.readEnergy::1            1282015800                       # Energy for read commands per rank (pJ)
system.mem_ctrls0.writeEnergy::0            604253520                       # Energy for write commands per rank (pJ)
system.mem_ctrls0.writeEnergy::1            601842960                       # Energy for write commands per rank (pJ)
system.mem_ctrls0.refreshEnergy::0         6112382640                       # Energy for refresh commands per rank (pJ)
system.mem_ctrls0.refreshEnergy::1         6112382640                       # Energy for refresh commands per rank (pJ)
system.mem_ctrls0.actBackEnergy::0        39060114975                       # Energy for active background per rank (pJ)
system.mem_ctrls0.actBackEnergy::1        38340050220                       # Energy for active background per rank (pJ)
system.mem_ctrls0.preBackEnergy::0        21886660500                       # Energy for precharge background per rank (pJ)
system.mem_ctrls0.preBackEnergy::1        22518296250                       # Energy for precharge background per rank (pJ)
system.mem_ctrls0.totalEnergy::0          69825387030                       # Total energy per rank (pJ)
system.mem_ctrls0.totalEnergy::1          69707779830                       # Total energy per rank (pJ)
system.mem_ctrls0.averagePower::0          746.131656                       # Core power per rank (mW)
system.mem_ctrls0.averagePower::1          744.874943                       # Core power per rank (mW)
system.mem_ctrls1.bytes_read::ruby.dir_cntrl1     20693248                       # Number of bytes read from this memory
system.mem_ctrls1.bytes_read::total          20693248                       # Number of bytes read from this memory
system.mem_ctrls1.bytes_written::ruby.dir_cntrl1     11493376                       # Number of bytes written to this memory
system.mem_ctrls1.bytes_written::total       11493376                       # Number of bytes written to this memory
system.mem_ctrls1.num_reads::ruby.dir_cntrl1       323332                       # Number of read requests responded to by this memory
system.mem_ctrls1.num_reads::total             323332                       # Number of read requests responded to by this memory
system.mem_ctrls1.num_writes::ruby.dir_cntrl1       179584                       # Number of write requests responded to by this memory
system.mem_ctrls1.num_writes::total            179584                       # Number of write requests responded to by this memory
system.mem_ctrls1.bw_read::ruby.dir_cntrl1    221107441                       # Total read bandwidth from this memory (bytes/s)
system.mem_ctrls1.bw_read::total            221107441                       # Total read bandwidth from this memory (bytes/s)
system.mem_ctrls1.bw_write::ruby.dir_cntrl1    122806771                       # Write bandwidth from this memory (bytes/s)
system.mem_ctrls1.bw_write::total           122806771                       # Write bandwidth from this memory (bytes/s)
system.mem_ctrls1.bw_total::ruby.dir_cntrl1    343914212                       # Total bandwidth to/from this memory (bytes/s)
system.mem_ctrls1.bw_total::total           343914212                       # Total bandwidth to/from this memory (bytes/s)
system.mem_ctrls1.readReqs                     323332                       # Number of read requests accepted
system.mem_ctrls1.writeReqs                    179584                       # Number of write requests accepted
system.mem_ctrls1.readBursts                   323332                       # Number of DRAM read bursts, including those serviced by the write queue
system.mem_ctrls1.writeBursts                  179584                       # Number of DRAM write bursts, including those merged in the write queue
system.mem_ctrls1.bytesReadDRAM              20691264                       # Total number of bytes read from DRAM
system.mem_ctrls1.bytesReadWrQ                   1984                       # Total number of bytes read from write queue
system.mem_ctrls1.bytesWritten               11493376                       # Total number of bytes written to DRAM
system.mem_ctrls1.bytesReadSys               20693248                       # Total read bytes from the system interface side
system.mem_ctrls1.bytesWrittenSys            11493376                       # Total written bytes from the system interface side
system.mem_ctrls1.servicedByWrQ                    31                       # Number of DRAM read bursts serviced by the write queue
system.mem_ctrls1.mergedWrBursts                    0                       # Number of DRAM write bursts merged with an existing one
system.mem_ctrls1.neitherReadNorWriteReqs            0                       # Number of requests that are neither read nor write
system.mem_ctrls1.perBankRdBursts::0            19942                       # Per bank write bursts
system.mem_ctrls1.perBankRdBursts::1            20562                       # Per bank write bursts
system.mem_ctrls1.perBankRdBursts::2            20084                       # Per bank write bursts
system.mem_ctrls1.perBankRdBursts::3            20435                       # Per bank write bursts
system.mem_ctrls1.perBankRdBursts::4            20163                       # Per bank write bursts
system.mem_ctrls1.perBankRdBursts::5            20599                       # Per bank write bursts
system.mem_ctrls1.perBankRdBursts::6            20218                       # Per bank write bursts
system.mem_ctrls1.perBankRdBursts::7            20371                       # Per bank write bursts
system.mem_ctrls1.perBankRdBursts::8            20250                       # Per bank write bursts
system.mem_ctrls1.perBankRdBursts::9            20427                       # Per bank write bursts
system.mem_ctrls1.perBankRdBursts::10           20189                       # Per bank write bursts
system.mem_ctrls1.perBankRdBursts::11           20541                       # Per bank write bursts
system.mem_ctrls1.perBankRdBursts::12           19822                       # Per bank write bursts
system.mem_ctrls1.perBankRdBursts::13           19747                       # Per bank write bursts
system.mem_ctrls1.perBankRdBursts::14           19942                       # Per bank write bursts
system.mem_ctrls1.perBankRdBursts::15           20009                       # Per bank write bursts
system.mem_ctrls1.perBankWrBursts::0            11109                       # Per bank write bursts
system.mem_ctrls1.perBankWrBursts::1            11266                       # Per bank write bursts
system.mem_ctrls1.perBankWrBursts::2            11269                       # Per bank write bursts
system.mem_ctrls1.perBankWrBursts::3            11240                       # Per bank write bursts
system.mem_ctrls1.perBankWrBursts::4            11216                       # Per bank write bursts
system.mem_ctrls1.perBankWrBursts::5            11523                       # Per bank write bursts
system.mem_ctrls1.perBankWrBursts::6            11140                       # Per bank write bursts
system.mem_ctrls1.perBankWrBursts::7            11259                       # Per bank write bursts
system.mem_ctrls1.perBankWrBursts::8            11494                       # Per bank write bursts
system.mem_ctrls1.perBankWrBursts::9            11298                       # Per bank write bursts
system.mem_ctrls1.perBankWrBursts::10           11127                       # Per bank write bursts
system.mem_ctrls1.perBankWrBursts::11           11289                       # Per bank write bursts
system.mem_ctrls1.perBankWrBursts::12           10958                       # Per bank write bursts
system.mem_ctrls1.perBankWrBursts::13           10907                       # Per bank write bursts
system.mem_ctrls1.perBankWrBursts::14           11294                       # Per bank write bursts
system.mem_ctrls1.perBankWrBursts::15           11195                       # Per bank write bursts
system.mem_ctrls1.numRdRetry                     4900                       # Number of times read queue was full causing retry
system.mem_ctrls1.numWrRetry                     2794                       # Number of times write queue was full causing retry
system.mem_ctrls1.totGap                  93588274500                       # Total gap between requests
system.mem_ctrls1.readPktSize::0                    0                       # Read request sizes (log2)
system.mem_ctrls1.readPktSize::1                    0                       # Read request sizes (log2)
system.mem_ctrls1.readPktSize::2                    0                       # Read request sizes (log2)
system.mem_ctrls1.readPktSize::3                    0                       # Read request sizes (log2)
system.mem_ctrls1.readPktSize::4                    0                       # Read request sizes (log2)
system.mem_ctrls1.readPktSize::5                    0                       # Read request sizes (log2)
system.mem_ctrls1.readPktSize::6               323332                       # Read request sizes (log2)
system.mem_ctrls1.writePktSize::0                   0                       # Write request sizes (log2)
system.mem_ctrls1.writePktSize::1                   0                       # Write request sizes (log2)
system.mem_ctrls1.writePktSize::2                   0                       # Write request sizes (log2)
system.mem_ctrls1.writePktSize::3                   0                       # Write request sizes (log2)
system.mem_ctrls1.writePktSize::4                   0                       # Write request sizes (log2)
system.mem_ctrls1.writePktSize::5                   0                       # Write request sizes (log2)
system.mem_ctrls1.writePktSize::6              179584                       # Write request sizes (log2)
system.mem_ctrls1.rdQLenPdf::0                 148741                       # What read queue length does an incoming req see
system.mem_ctrls1.rdQLenPdf::1                  31742                       # What read queue length does an incoming req see
system.mem_ctrls1.rdQLenPdf::2                  25891                       # What read queue length does an incoming req see
system.mem_ctrls1.rdQLenPdf::3                  20333                       # What read queue length does an incoming req see
system.mem_ctrls1.rdQLenPdf::4                  15525                       # What read queue length does an incoming req see
system.mem_ctrls1.rdQLenPdf::5                  12488                       # What read queue length does an incoming req see
system.mem_ctrls1.rdQLenPdf::6                   9984                       # What read queue length does an incoming req see
system.mem_ctrls1.rdQLenPdf::7                   8000                       # What read queue length does an incoming req see
system.mem_ctrls1.rdQLenPdf::8                   6497                       # What read queue length does an incoming req see
system.mem_ctrls1.rdQLenPdf::9                   5523                       # What read queue length does an incoming req see
system.mem_ctrls1.rdQLenPdf::10                  4601                       # What read queue length does an incoming req see
system.mem_ctrls1.rdQLenPdf::11                  3868                       # What read queue length does an incoming req see
system.mem_ctrls1.rdQLenPdf::12                  3279                       # What read queue length does an incoming req see
system.mem_ctrls1.rdQLenPdf::13                  2725                       # What read queue length does an incoming req see
system.mem_ctrls1.rdQLenPdf::14                  2354                       # What read queue length does an incoming req see
system.mem_ctrls1.rdQLenPdf::15                  2031                       # What read queue length does an incoming req see
system.mem_ctrls1.rdQLenPdf::16                  1810                       # What read queue length does an incoming req see
system.mem_ctrls1.rdQLenPdf::17                  1637                       # What read queue length does an incoming req see
system.mem_ctrls1.rdQLenPdf::18                  1492                       # What read queue length does an incoming req see
system.mem_ctrls1.rdQLenPdf::19                  1376                       # What read queue length does an incoming req see
system.mem_ctrls1.rdQLenPdf::20                  1170                       # What read queue length does an incoming req see
system.mem_ctrls1.rdQLenPdf::21                   960                       # What read queue length does an incoming req see
system.mem_ctrls1.rdQLenPdf::22                   873                       # What read queue length does an incoming req see
system.mem_ctrls1.rdQLenPdf::23                   791                       # What read queue length does an incoming req see
system.mem_ctrls1.rdQLenPdf::24                   698                       # What read queue length does an incoming req see
system.mem_ctrls1.rdQLenPdf::25                   671                       # What read queue length does an incoming req see
system.mem_ctrls1.rdQLenPdf::26                   641                       # What read queue length does an incoming req see
system.mem_ctrls1.rdQLenPdf::27                   557                       # What read queue length does an incoming req see
system.mem_ctrls1.rdQLenPdf::28                   572                       # What read queue length does an incoming req see
system.mem_ctrls1.rdQLenPdf::29                   505                       # What read queue length does an incoming req see
system.mem_ctrls1.rdQLenPdf::30                   484                       # What read queue length does an incoming req see
system.mem_ctrls1.rdQLenPdf::31                  5482                       # What read queue length does an incoming req see
system.mem_ctrls1.wrQLenPdf::0                  31367                       # What write queue length does an incoming req see
system.mem_ctrls1.wrQLenPdf::1                  33418                       # What write queue length does an incoming req see
system.mem_ctrls1.wrQLenPdf::2                  34038                       # What write queue length does an incoming req see
system.mem_ctrls1.wrQLenPdf::3                  34374                       # What write queue length does an incoming req see
system.mem_ctrls1.wrQLenPdf::4                  34148                       # What write queue length does an incoming req see
system.mem_ctrls1.wrQLenPdf::5                   4142                       # What write queue length does an incoming req see
system.mem_ctrls1.wrQLenPdf::6                   3195                       # What write queue length does an incoming req see
system.mem_ctrls1.wrQLenPdf::7                   4902                       # What write queue length does an incoming req see
system.mem_ctrls1.bytesPerActivate::samples       139085                       # Bytes accessed per row activation
system.mem_ctrls1.bytesPerActivate::mean   231.398986                       # Bytes accessed per row activation
system.mem_ctrls1.bytesPerActivate::gmean   171.903854                       # Bytes accessed per row activation
system.mem_ctrls1.bytesPerActivate::stdev   191.908738                       # Bytes accessed per row activation
system.mem_ctrls1.bytesPerActivate::0-127        40559     29.16%     29.16% # Bytes accessed per row activation
system.mem_ctrls1.bytesPerActivate::128-255        38171     27.44%     56.61% # Bytes accessed per row activation
system.mem_ctrls1.bytesPerActivate::256-383        41983     30.19%     86.79% # Bytes accessed per row activation
system.mem_ctrls1.bytesPerActivate::384-511         6754      4.86%     91.65% # Bytes accessed per row activation
system.mem_ctrls1.bytesPerActivate::512-639         4402      3.16%     94.81% # Bytes accessed per row activation
system.mem_ctrls1.bytesPerActivate::640-767         2321      1.67%     96.48% # Bytes accessed per row activation
system.mem_ctrls1.bytesPerActivate::768-895         1595      1.15%     97.63% # Bytes accessed per row activation
system.mem_ctrls1.bytesPerActivate::896-1023         1086      0.78%     98.41% # Bytes accessed per row activation
system.mem_ctrls1.bytesPerActivate::1024-1151         2214      1.59%    100.00% # Bytes accessed per row activation
system.mem_ctrls1.bytesPerActivate::total       139085                       # Bytes accessed per row activation
system.mem_ctrls1.rdPerTurnAround::samples        31668                       # Reads before turning the bus around for writes
system.mem_ctrls1.rdPerTurnAround::mean     10.208981                       # Reads before turning the bus around for writes
system.mem_ctrls1.rdPerTurnAround::stdev    20.522239                       # Reads before turning the bus around for writes
system.mem_ctrls1.rdPerTurnAround::0-127        31661     99.98%     99.98% # Reads before turning the bus around for writes
system.mem_ctrls1.rdPerTurnAround::128-255            5      0.02%     99.99% # Reads before turning the bus around for writes
system.mem_ctrls1.rdPerTurnAround::1152-1279            1      0.00%    100.00% # Reads before turning the bus around for writes
system.mem_ctrls1.rdPerTurnAround::2816-2943            1      0.00%    100.00% # Reads before turning the bus around for writes
system.mem_ctrls1.rdPerTurnAround::total        31668                       # Reads before turning the bus around for writes
system.mem_ctrls1.wrPerTurnAround::samples        31668                       # Writes before turning the bus around for reads
system.mem_ctrls1.wrPerTurnAround::mean      5.670835                       # Writes before turning the bus around for reads
system.mem_ctrls1.wrPerTurnAround::gmean     5.483758                       # Writes before turning the bus around for reads
system.mem_ctrls1.wrPerTurnAround::stdev     1.876107                       # Writes before turning the bus around for reads
system.mem_ctrls1.wrPerTurnAround::4-7          28752     90.79%     90.79% # Writes before turning the bus around for reads
system.mem_ctrls1.wrPerTurnAround::8-11          1984      6.26%     97.06% # Writes before turning the bus around for reads
system.mem_ctrls1.wrPerTurnAround::12-15          551      1.74%     98.80% # Writes before turning the bus around for reads
system.mem_ctrls1.wrPerTurnAround::16-19          381      1.20%    100.00% # Writes before turning the bus around for reads
system.mem_ctrls1.wrPerTurnAround::total        31668                       # Writes before turning the bus around for reads
system.mem_ctrls1.totQLat                 14725120926                       # Total ticks spent queuing
system.mem_ctrls1.totMemAccLat            20787014676                       # Total ticks spent from burst creation until serviced by the DRAM
system.mem_ctrls1.totBusLat                1616505000                       # Total ticks spent in databus transfers
system.mem_ctrls1.avgQLat                    45546.17                       # Average queueing delay per DRAM burst
system.mem_ctrls1.avgBusLat                   5000.00                       # Average bus latency per DRAM burst
system.mem_ctrls1.avgMemAccLat               64296.17                       # Average memory access latency per DRAM burst
system.mem_ctrls1.avgRdBW                      221.09                       # Average DRAM read bandwidth in MiByte/s
system.mem_ctrls1.avgWrBW                      122.81                       # Average achieved write bandwidth in MiByte/s
system.mem_ctrls1.avgRdBWSys                   221.11                       # Average system read bandwidth in MiByte/s
system.mem_ctrls1.avgWrBWSys                   122.81                       # Average system write bandwidth in MiByte/s
system.mem_ctrls1.peakBW                     12800.00                       # Theoretical peak bandwidth in MiByte/s
system.mem_ctrls1.busUtil                        2.69                       # Data bus utilization in percentage
system.mem_ctrls1.busUtilRead                    1.73                       # Data bus utilization in percentage for reads
system.mem_ctrls1.busUtilWrite                   0.96                       # Data bus utilization in percentage for writes
system.mem_ctrls1.avgRdQLen                      1.25                       # Average read queue length when enqueuing
system.mem_ctrls1.avgWrQLen                      2.98                       # Average write queue length when enqueuing
system.mem_ctrls1.readRowHits                  249733                       # Number of row buffer hits during reads
system.mem_ctrls1.writeRowHits                 114059                       # Number of row buffer hits during writes
system.mem_ctrls1.readRowHitRate                77.24                       # Row buffer hit rate for reads
system.mem_ctrls1.writeRowHitRate               63.51                       # Row buffer hit rate for writes
system.mem_ctrls1.avgGap                    186091.26                       # Average gap between requests
system.mem_ctrls1.pageHitRate                   72.34                       # Row buffer hit rate, read and write combined
system.mem_ctrls1.memoryStateTime::IDLE   15403860750                       # Time in different power states
system.mem_ctrls1.memoryStateTime::REF     3124940000                       # Time in different power states
system.mem_ctrls1.memoryStateTime::PRE_PDN            0                       # Time in different power states
system.mem_ctrls1.memoryStateTime::ACT    75056884250                       # Time in different power states
system.mem_ctrls1.memoryStateTime::ACT_PDN            0                       # Time in different power states
system.mem_ctrls1.actEnergy::0              530901000                       # Energy for activate commands per rank (pJ)
system.mem_ctrls1.actEnergy::1              520521120                       # Energy for activate commands per rank (pJ)
system.mem_ctrls1.preEnergy::0              289678125                       # Energy for precharge commands per rank (pJ)
system.mem_ctrls1.preEnergy::1              284014500                       # Energy for precharge commands per rank (pJ)
system.mem_ctrls1.readEnergy::0            1266423600                       # Energy for read commands per rank (pJ)
system.mem_ctrls1.readEnergy::1            1255191600                       # Energy for read commands per rank (pJ)
system.mem_ctrls1.writeEnergy::0            583329600                       # Energy for write commands per rank (pJ)
system.mem_ctrls1.writeEnergy::1            580342320                       # Energy for write commands per rank (pJ)
system.mem_ctrls1.refreshEnergy::0         6112382640                       # Energy for refresh commands per rank (pJ)
system.mem_ctrls1.refreshEnergy::1         6112382640                       # Energy for refresh commands per rank (pJ)
system.mem_ctrls1.actBackEnergy::0        38546625915                       # Energy for active background per rank (pJ)
system.mem_ctrls1.actBackEnergy::1        37586738790                       # Energy for active background per rank (pJ)
system.mem_ctrls1.preBackEnergy::0        22337089500                       # Energy for precharge background per rank (pJ)
system.mem_ctrls1.preBackEnergy::1        23179095750                       # Energy for precharge background per rank (pJ)
system.mem_ctrls1.totalEnergy::0          69666430380                       # Total energy per rank (pJ)
system.mem_ctrls1.totalEnergy::1          69518286720                       # Total energy per rank (pJ)
system.mem_ctrls1.averagePower::0          744.433096                       # Core power per rank (mW)
system.mem_ctrls1.averagePower::1          742.850080                       # Core power per rank (mW)
system.mem_ctrls2.bytes_read::ruby.dir_cntrl2     20699584                       # Number of bytes read from this memory
system.mem_ctrls2.bytes_read::total          20699584                       # Number of bytes read from this memory
system.mem_ctrls2.bytes_written::ruby.dir_cntrl2     11493376                       # Number of bytes written to this memory
system.mem_ctrls2.bytes_written::total       11493376                       # Number of bytes written to this memory
system.mem_ctrls2.num_reads::ruby.dir_cntrl2       323431                       # Number of read requests responded to by this memory
system.mem_ctrls2.num_reads::total             323431                       # Number of read requests responded to by this memory
system.mem_ctrls2.num_writes::ruby.dir_cntrl2       179584                       # Number of write requests responded to by this memory
system.mem_ctrls2.num_writes::total            179584                       # Number of write requests responded to by this memory
system.mem_ctrls2.bw_read::ruby.dir_cntrl2    221175142                       # Total read bandwidth from this memory (bytes/s)
system.mem_ctrls2.bw_read::total            221175142                       # Total read bandwidth from this memory (bytes/s)
system.mem_ctrls2.bw_write::ruby.dir_cntrl2    122806771                       # Write bandwidth from this memory (bytes/s)
system.mem_ctrls2.bw_write::total           122806771                       # Write bandwidth from this memory (bytes/s)
system.mem_ctrls2.bw_total::ruby.dir_cntrl2    343981912                       # Total bandwidth to/from this memory (bytes/s)
system.mem_ctrls2.bw_total::total           343981912                       # Total bandwidth to/from this memory (bytes/s)
system.mem_ctrls2.readReqs                     323431                       # Number of read requests accepted
system.mem_ctrls2.writeReqs                    179584                       # Number of write requests accepted
system.mem_ctrls2.readBursts                   323431                       # Number of DRAM read bursts, including those serviced by the write queue
system.mem_ctrls2.writeBursts                  179584                       # Number of DRAM write bursts, including those merged in the write queue
system.mem_ctrls2.bytesReadDRAM              20698560                       # Total number of bytes read from DRAM
system.mem_ctrls2.bytesReadWrQ                   1024                       # Total number of bytes read from write queue
system.mem_ctrls2.bytesWritten               11493376                       # Total number of bytes written to DRAM
system.mem_ctrls2.bytesReadSys               20699584                       # Total read bytes from the system interface side
system.mem_ctrls2.bytesWrittenSys            11493376                       # Total written bytes from the system interface side
system.mem_ctrls2.servicedByWrQ                    16                       # Number of DRAM read bursts serviced by the write queue
system.mem_ctrls2.mergedWrBursts                    0                       # Number of DRAM write bursts merged with an existing one
system.mem_ctrls2.neitherReadNorWriteReqs            0                       # Number of requests that are neither read nor write
system.mem_ctrls2.perBankRdBursts::0            19967                       # Per bank write bursts
system.mem_ctrls2.perBankRdBursts::1            20562                       # Per bank write bursts
system.mem_ctrls2.perBankRdBursts::2            20132                       # Per bank write bursts
system.mem_ctrls2.perBankRdBursts::3            20497                       # Per bank write bursts
system.mem_ctrls2.perBankRdBursts::4            20125                       # Per bank write bursts
system.mem_ctrls2.perBankRdBursts::5            20581                       # Per bank write bursts
system.mem_ctrls2.perBankRdBursts::6            20211                       # Per bank write bursts
system.mem_ctrls2.perBankRdBursts::7            20373                       # Per bank write bursts
system.mem_ctrls2.perBankRdBursts::8            20213                       # Per bank write bursts
system.mem_ctrls2.perBankRdBursts::9            20477                       # Per bank write bursts
system.mem_ctrls2.perBankRdBursts::10           20214                       # Per bank write bursts
system.mem_ctrls2.perBankRdBursts::11           20599                       # Per bank write bursts
system.mem_ctrls2.perBankRdBursts::12           19846                       # Per bank write bursts
system.mem_ctrls2.perBankRdBursts::13           19679                       # Per bank write bursts
system.mem_ctrls2.perBankRdBursts::14           19925                       # Per bank write bursts
system.mem_ctrls2.perBankRdBursts::15           20014                       # Per bank write bursts
system.mem_ctrls2.perBankWrBursts::0            11108                       # Per bank write bursts
system.mem_ctrls2.perBankWrBursts::1            11265                       # Per bank write bursts
system.mem_ctrls2.perBankWrBursts::2            11262                       # Per bank write bursts
system.mem_ctrls2.perBankWrBursts::3            11259                       # Per bank write bursts
system.mem_ctrls2.perBankWrBursts::4            11209                       # Per bank write bursts
system.mem_ctrls2.perBankWrBursts::5            11504                       # Per bank write bursts
system.mem_ctrls2.perBankWrBursts::6            11161                       # Per bank write bursts
system.mem_ctrls2.perBankWrBursts::7            11260                       # Per bank write bursts
system.mem_ctrls2.perBankWrBursts::8            11461                       # Per bank write bursts
system.mem_ctrls2.perBankWrBursts::9            11307                       # Per bank write bursts
system.mem_ctrls2.perBankWrBursts::10           11115                       # Per bank write bursts
system.mem_ctrls2.perBankWrBursts::11           11309                       # Per bank write bursts
system.mem_ctrls2.perBankWrBursts::12           10960                       # Per bank write bursts
system.mem_ctrls2.perBankWrBursts::13           10903                       # Per bank write bursts
system.mem_ctrls2.perBankWrBursts::14           11299                       # Per bank write bursts
system.mem_ctrls2.perBankWrBursts::15           11202                       # Per bank write bursts
system.mem_ctrls2.numRdRetry                     4520                       # Number of times read queue was full causing retry
system.mem_ctrls2.numWrRetry                     2478                       # Number of times write queue was full causing retry
system.mem_ctrls2.totGap                  93588967000                       # Total gap between requests
system.mem_ctrls2.readPktSize::0                    0                       # Read request sizes (log2)
system.mem_ctrls2.readPktSize::1                    0                       # Read request sizes (log2)
system.mem_ctrls2.readPktSize::2                    0                       # Read request sizes (log2)
system.mem_ctrls2.readPktSize::3                    0                       # Read request sizes (log2)
system.mem_ctrls2.readPktSize::4                    0                       # Read request sizes (log2)
system.mem_ctrls2.readPktSize::5                    0                       # Read request sizes (log2)
system.mem_ctrls2.readPktSize::6               323431                       # Read request sizes (log2)
system.mem_ctrls2.writePktSize::0                   0                       # Write request sizes (log2)
system.mem_ctrls2.writePktSize::1                   0                       # Write request sizes (log2)
system.mem_ctrls2.writePktSize::2                   0                       # Write request sizes (log2)
system.mem_ctrls2.writePktSize::3                   0                       # Write request sizes (log2)
system.mem_ctrls2.writePktSize::4                   0                       # Write request sizes (log2)
system.mem_ctrls2.writePktSize::5                   0                       # Write request sizes (log2)
system.mem_ctrls2.writePktSize::6              179584                       # Write request sizes (log2)
system.mem_ctrls2.rdQLenPdf::0                 149263                       # What read queue length does an incoming req see
system.mem_ctrls2.rdQLenPdf::1                  31660                       # What read queue length does an incoming req see
system.mem_ctrls2.rdQLenPdf::2                  26053                       # What read queue length does an incoming req see
system.mem_ctrls2.rdQLenPdf::3                  20381                       # What read queue length does an incoming req see
system.mem_ctrls2.rdQLenPdf::4                  15665                       # What read queue length does an incoming req see
system.mem_ctrls2.rdQLenPdf::5                  12523                       # What read queue length does an incoming req see
system.mem_ctrls2.rdQLenPdf::6                  10166                       # What read queue length does an incoming req see
system.mem_ctrls2.rdQLenPdf::7                   8258                       # What read queue length does an incoming req see
system.mem_ctrls2.rdQLenPdf::8                   6520                       # What read queue length does an incoming req see
system.mem_ctrls2.rdQLenPdf::9                   5462                       # What read queue length does an incoming req see
system.mem_ctrls2.rdQLenPdf::10                  4430                       # What read queue length does an incoming req see
system.mem_ctrls2.rdQLenPdf::11                  3688                       # What read queue length does an incoming req see
system.mem_ctrls2.rdQLenPdf::12                  3122                       # What read queue length does an incoming req see
system.mem_ctrls2.rdQLenPdf::13                  2722                       # What read queue length does an incoming req see
system.mem_ctrls2.rdQLenPdf::14                  2302                       # What read queue length does an incoming req see
system.mem_ctrls2.rdQLenPdf::15                  2001                       # What read queue length does an incoming req see
system.mem_ctrls2.rdQLenPdf::16                  1755                       # What read queue length does an incoming req see
system.mem_ctrls2.rdQLenPdf::17                  1546                       # What read queue length does an incoming req see
system.mem_ctrls2.rdQLenPdf::18                  1475                       # What read queue length does an incoming req see
system.mem_ctrls2.rdQLenPdf::19                  1284                       # What read queue length does an incoming req see
system.mem_ctrls2.rdQLenPdf::20                  1173                       # What read queue length does an incoming req see
system.mem_ctrls2.rdQLenPdf::21                  1025                       # What read queue length does an incoming req see
system.mem_ctrls2.rdQLenPdf::22                   931                       # What read queue length does an incoming req see
system.mem_ctrls2.rdQLenPdf::23                   855                       # What read queue length does an incoming req see
system.mem_ctrls2.rdQLenPdf::24                   764                       # What read queue length does an incoming req see
system.mem_ctrls2.rdQLenPdf::25                   681                       # What read queue length does an incoming req see
system.mem_ctrls2.rdQLenPdf::26                   632                       # What read queue length does an incoming req see
system.mem_ctrls2.rdQLenPdf::27                   599                       # What read queue length does an incoming req see
system.mem_ctrls2.rdQLenPdf::28                   541                       # What read queue length does an incoming req see
system.mem_ctrls2.rdQLenPdf::29                   478                       # What read queue length does an incoming req see
system.mem_ctrls2.rdQLenPdf::30                   445                       # What read queue length does an incoming req see
system.mem_ctrls2.rdQLenPdf::31                  5015                       # What read queue length does an incoming req see
system.mem_ctrls2.wrQLenPdf::0                  31446                       # What write queue length does an incoming req see
system.mem_ctrls2.wrQLenPdf::1                  33376                       # What write queue length does an incoming req see
system.mem_ctrls2.wrQLenPdf::2                  34117                       # What write queue length does an incoming req see
system.mem_ctrls2.wrQLenPdf::3                  34464                       # What write queue length does an incoming req see
system.mem_ctrls2.wrQLenPdf::4                  34386                       # What write queue length does an incoming req see
system.mem_ctrls2.wrQLenPdf::5                   4208                       # What write queue length does an incoming req see
system.mem_ctrls2.wrQLenPdf::6                   3162                       # What write queue length does an incoming req see
system.mem_ctrls2.wrQLenPdf::7                   4425                       # What write queue length does an incoming req see
system.mem_ctrls2.bytesPerActivate::samples       138906                       # Bytes accessed per row activation
system.mem_ctrls2.bytesPerActivate::mean   231.748780                       # Bytes accessed per row activation
system.mem_ctrls2.bytesPerActivate::gmean   172.481102                       # Bytes accessed per row activation
system.mem_ctrls2.bytesPerActivate::stdev   191.462729                       # Bytes accessed per row activation
system.mem_ctrls2.bytesPerActivate::0-127        40200     28.94%     28.94% # Bytes accessed per row activation
system.mem_ctrls2.bytesPerActivate::128-255        38020     27.37%     56.31% # Bytes accessed per row activation
system.mem_ctrls2.bytesPerActivate::256-383        42386     30.51%     86.83% # Bytes accessed per row activation
system.mem_ctrls2.bytesPerActivate::384-511         6751      4.86%     91.69% # Bytes accessed per row activation
system.mem_ctrls2.bytesPerActivate::512-639         4348      3.13%     94.82% # Bytes accessed per row activation
system.mem_ctrls2.bytesPerActivate::640-767         2399      1.73%     96.54% # Bytes accessed per row activation
system.mem_ctrls2.bytesPerActivate::768-895         1509      1.09%     97.63% # Bytes accessed per row activation
system.mem_ctrls2.bytesPerActivate::896-1023         1039      0.75%     98.38% # Bytes accessed per row activation
system.mem_ctrls2.bytesPerActivate::1024-1151         2254      1.62%    100.00% # Bytes accessed per row activation
system.mem_ctrls2.bytesPerActivate::total       138906                       # Bytes accessed per row activation
system.mem_ctrls2.rdPerTurnAround::samples        31723                       # Reads before turning the bus around for writes
system.mem_ctrls2.rdPerTurnAround::mean     10.194906                       # Reads before turning the bus around for writes
system.mem_ctrls2.rdPerTurnAround::stdev    20.521693                       # Reads before turning the bus around for writes
system.mem_ctrls2.rdPerTurnAround::0-127        31717     99.98%     99.98% # Reads before turning the bus around for writes
system.mem_ctrls2.rdPerTurnAround::128-255            4      0.01%     99.99% # Reads before turning the bus around for writes
system.mem_ctrls2.rdPerTurnAround::1152-1279            1      0.00%    100.00% # Reads before turning the bus around for writes
system.mem_ctrls2.rdPerTurnAround::2816-2943            1      0.00%    100.00% # Reads before turning the bus around for writes
system.mem_ctrls2.rdPerTurnAround::total        31723                       # Reads before turning the bus around for writes
system.mem_ctrls2.wrPerTurnAround::samples        31723                       # Writes before turning the bus around for reads
system.mem_ctrls2.wrPerTurnAround::mean      5.661003                       # Writes before turning the bus around for reads
system.mem_ctrls2.wrPerTurnAround::gmean     5.478594                       # Writes before turning the bus around for reads
system.mem_ctrls2.wrPerTurnAround::stdev     1.848431                       # Writes before turning the bus around for reads
system.mem_ctrls2.wrPerTurnAround::4-7          28856     90.96%     90.96% # Writes before turning the bus around for reads
system.mem_ctrls2.wrPerTurnAround::8-11          1960      6.18%     97.14% # Writes before turning the bus around for reads
system.mem_ctrls2.wrPerTurnAround::12-15          552      1.74%     98.88% # Writes before turning the bus around for reads
system.mem_ctrls2.wrPerTurnAround::16-19          355      1.12%    100.00% # Writes before turning the bus around for reads
system.mem_ctrls2.wrPerTurnAround::total        31723                       # Writes before turning the bus around for reads
system.mem_ctrls2.totQLat                 14577235744                       # Total ticks spent queuing
system.mem_ctrls2.totMemAccLat            20641266994                       # Total ticks spent from burst creation until serviced by the DRAM
system.mem_ctrls2.totBusLat                1617075000                       # Total ticks spent in databus transfers
system.mem_ctrls2.avgQLat                    45072.85                       # Average queueing delay per DRAM burst
system.mem_ctrls2.avgBusLat                   5000.00                       # Average bus latency per DRAM burst
system.mem_ctrls2.avgMemAccLat               63822.85                       # Average memory access latency per DRAM burst
system.mem_ctrls2.avgRdBW                      221.16                       # Average DRAM read bandwidth in MiByte/s
system.mem_ctrls2.avgWrBW                      122.81                       # Average achieved write bandwidth in MiByte/s
system.mem_ctrls2.avgRdBWSys                   221.18                       # Average system read bandwidth in MiByte/s
system.mem_ctrls2.avgWrBWSys                   122.81                       # Average system write bandwidth in MiByte/s
system.mem_ctrls2.peakBW                     12800.00                       # Theoretical peak bandwidth in MiByte/s
system.mem_ctrls2.busUtil                        2.69                       # Data bus utilization in percentage
system.mem_ctrls2.busUtilRead                    1.73                       # Data bus utilization in percentage for reads
system.mem_ctrls2.busUtilWrite                   0.96                       # Data bus utilization in percentage for writes
system.mem_ctrls2.avgRdQLen                      1.24                       # Average read queue length when enqueuing
system.mem_ctrls2.avgWrQLen                      2.98                       # Average write queue length when enqueuing
system.mem_ctrls2.readRowHits                  249735                       # Number of row buffer hits during reads
system.mem_ctrls2.writeRowHits                 114349                       # Number of row buffer hits during writes
system.mem_ctrls2.readRowHitRate                77.22                       # Row buffer hit rate for reads
system.mem_ctrls2.writeRowHitRate               63.67                       # Row buffer hit rate for writes
system.mem_ctrls2.avgGap                    186056.02                       # Average gap between requests
system.mem_ctrls2.pageHitRate                   72.38                       # Row buffer hit rate, read and write combined
system.mem_ctrls2.memoryStateTime::IDLE   15452238250                       # Time in different power states
system.mem_ctrls2.memoryStateTime::REF     3124940000                       # Time in different power states
system.mem_ctrls2.memoryStateTime::PRE_PDN            0                       # Time in different power states
system.mem_ctrls2.memoryStateTime::ACT    75006034250                       # Time in different power states
system.mem_ctrls2.memoryStateTime::ACT_PDN            0                       # Time in different power states
system.mem_ctrls2.actEnergy::0              532526400                       # Energy for activate commands per rank (pJ)
system.mem_ctrls2.actEnergy::1              517550040                       # Energy for activate commands per rank (pJ)
system.mem_ctrls2.preEnergy::0              290565000                       # Energy for precharge commands per rank (pJ)
system.mem_ctrls2.preEnergy::1              282393375                       # Energy for precharge commands per rank (pJ)
system.mem_ctrls2.readEnergy::0            1267016400                       # Energy for read commands per rank (pJ)
system.mem_ctrls2.readEnergy::1            1255503600                       # Energy for read commands per rank (pJ)
system.mem_ctrls2.writeEnergy::0            583368480                       # Energy for write commands per rank (pJ)
system.mem_ctrls2.writeEnergy::1            580303440                       # Energy for write commands per rank (pJ)
system.mem_ctrls2.refreshEnergy::0         6112382640                       # Energy for refresh commands per rank (pJ)
system.mem_ctrls2.refreshEnergy::1         6112382640                       # Energy for refresh commands per rank (pJ)
system.mem_ctrls2.actBackEnergy::0        38431909710                       # Energy for active background per rank (pJ)
system.mem_ctrls2.actBackEnergy::1        37516482585                       # Energy for active background per rank (pJ)
system.mem_ctrls2.preBackEnergy::0        22437717750                       # Energy for precharge background per rank (pJ)
system.mem_ctrls2.preBackEnergy::1        23240724000                       # Energy for precharge background per rank (pJ)
system.mem_ctrls2.totalEnergy::0          69655486380                       # Total energy per rank (pJ)
system.mem_ctrls2.totalEnergy::1          69505339680                       # Total energy per rank (pJ)
system.mem_ctrls2.averagePower::0          744.316152                       # Core power per rank (mW)
system.mem_ctrls2.averagePower::1          742.711733                       # Core power per rank (mW)
system.mem_ctrls3.bytes_read::ruby.dir_cntrl3     20669760                       # Number of bytes read from this memory
system.mem_ctrls3.bytes_read::total          20669760                       # Number of bytes read from this memory
system.mem_ctrls3.bytes_written::ruby.dir_cntrl3     11493120                       # Number of bytes written to this memory
system.mem_ctrls3.bytes_written::total       11493120                       # Number of bytes written to this memory
system.mem_ctrls3.num_reads::ruby.dir_cntrl3       322965                       # Number of read requests responded to by this memory
system.mem_ctrls3.num_reads::total             322965                       # Number of read requests responded to by this memory
system.mem_ctrls3.num_writes::ruby.dir_cntrl3       179580                       # Number of write requests responded to by this memory
system.mem_ctrls3.num_writes::total            179580                       # Number of write requests responded to by this memory
system.mem_ctrls3.bw_read::ruby.dir_cntrl3    220856472                       # Total read bandwidth from this memory (bytes/s)
system.mem_ctrls3.bw_read::total            220856472                       # Total read bandwidth from this memory (bytes/s)
system.mem_ctrls3.bw_write::ruby.dir_cntrl3    122804035                       # Write bandwidth from this memory (bytes/s)
system.mem_ctrls3.bw_write::total           122804035                       # Write bandwidth from this memory (bytes/s)
system.mem_ctrls3.bw_total::ruby.dir_cntrl3    343660507                       # Total bandwidth to/from this memory (bytes/s)
system.mem_ctrls3.bw_total::total           343660507                       # Total bandwidth to/from this memory (bytes/s)
system.mem_ctrls3.readReqs                     322965                       # Number of read requests accepted
system.mem_ctrls3.writeReqs                    179580                       # Number of write requests accepted
system.mem_ctrls3.readBursts                   322965                       # Number of DRAM read bursts, including those serviced by the write queue
system.mem_ctrls3.writeBursts                  179580                       # Number of DRAM write bursts, including those merged in the write queue
system.mem_ctrls3.bytesReadDRAM              20669056                       # Total number of bytes read from DRAM
system.mem_ctrls3.bytesReadWrQ                    704                       # Total number of bytes read from write queue
system.mem_ctrls3.bytesWritten               11492992                       # Total number of bytes written to DRAM
system.mem_ctrls3.bytesReadSys               20669760                       # Total read bytes from the system interface side
system.mem_ctrls3.bytesWrittenSys            11493120                       # Total written bytes from the system interface side
system.mem_ctrls3.servicedByWrQ                    11                       # Number of DRAM read bursts serviced by the write queue
system.mem_ctrls3.mergedWrBursts                    0                       # Number of DRAM write bursts merged with an existing one
system.mem_ctrls3.neitherReadNorWriteReqs            0                       # Number of requests that are neither read nor write
system.mem_ctrls3.perBankRdBursts::0            19933                       # Per bank write bursts
system.mem_ctrls3.perBankRdBursts::1            20569                       # Per bank write bursts
system.mem_ctrls3.perBankRdBursts::2            20027                       # Per bank write bursts
system.mem_ctrls3.perBankRdBursts::3            20457                       # Per bank write bursts
system.mem_ctrls3.perBankRdBursts::4            20061                       # Per bank write bursts
system.mem_ctrls3.perBankRdBursts::5            20536                       # Per bank write bursts
system.mem_ctrls3.perBankRdBursts::6            20204                       # Per bank write bursts
system.mem_ctrls3.perBankRdBursts::7            20355                       # Per bank write bursts
system.mem_ctrls3.perBankRdBursts::8            20214                       # Per bank write bursts
system.mem_ctrls3.perBankRdBursts::9            20445                       # Per bank write bursts
system.mem_ctrls3.perBankRdBursts::10           20221                       # Per bank write bursts
system.mem_ctrls3.perBankRdBursts::11           20477                       # Per bank write bursts
system.mem_ctrls3.perBankRdBursts::12           19797                       # Per bank write bursts
system.mem_ctrls3.perBankRdBursts::13           19670                       # Per bank write bursts
system.mem_ctrls3.perBankRdBursts::14           19962                       # Per bank write bursts
system.mem_ctrls3.perBankRdBursts::15           20026                       # Per bank write bursts
system.mem_ctrls3.perBankWrBursts::0            11107                       # Per bank write bursts
system.mem_ctrls3.perBankWrBursts::1            11266                       # Per bank write bursts
system.mem_ctrls3.perBankWrBursts::2            11270                       # Per bank write bursts
system.mem_ctrls3.perBankWrBursts::3            11252                       # Per bank write bursts
system.mem_ctrls3.perBankWrBursts::4            11205                       # Per bank write bursts
system.mem_ctrls3.perBankWrBursts::5            11508                       # Per bank write bursts
system.mem_ctrls3.perBankWrBursts::6            11147                       # Per bank write bursts
system.mem_ctrls3.perBankWrBursts::7            11257                       # Per bank write bursts
system.mem_ctrls3.perBankWrBursts::8            11465                       # Per bank write bursts
system.mem_ctrls3.perBankWrBursts::9            11310                       # Per bank write bursts
system.mem_ctrls3.perBankWrBursts::10           11116                       # Per bank write bursts
system.mem_ctrls3.perBankWrBursts::11           11308                       # Per bank write bursts
system.mem_ctrls3.perBankWrBursts::12           10963                       # Per bank write bursts
system.mem_ctrls3.perBankWrBursts::13           10912                       # Per bank write bursts
system.mem_ctrls3.perBankWrBursts::14           11292                       # Per bank write bursts
system.mem_ctrls3.perBankWrBursts::15           11200                       # Per bank write bursts
system.mem_ctrls3.numRdRetry                     5231                       # Number of times read queue was full causing retry
system.mem_ctrls3.numWrRetry                     2686                       # Number of times write queue was full causing retry
system.mem_ctrls3.totGap                  93588294000                       # Total gap between requests
system.mem_ctrls3.readPktSize::0                    0                       # Read request sizes (log2)
system.mem_ctrls3.readPktSize::1                    0                       # Read request sizes (log2)
system.mem_ctrls3.readPktSize::2                    0                       # Read request sizes (log2)
system.mem_ctrls3.readPktSize::3                    0                       # Read request sizes (log2)
system.mem_ctrls3.readPktSize::4                    0                       # Read request sizes (log2)
system.mem_ctrls3.readPktSize::5                    0                       # Read request sizes (log2)
system.mem_ctrls3.readPktSize::6               322965                       # Read request sizes (log2)
system.mem_ctrls3.writePktSize::0                   0                       # Write request sizes (log2)
system.mem_ctrls3.writePktSize::1                   0                       # Write request sizes (log2)
system.mem_ctrls3.writePktSize::2                   0                       # Write request sizes (log2)
system.mem_ctrls3.writePktSize::3                   0                       # Write request sizes (log2)
system.mem_ctrls3.writePktSize::4                   0                       # Write request sizes (log2)
system.mem_ctrls3.writePktSize::5                   0                       # Write request sizes (log2)
system.mem_ctrls3.writePktSize::6              179580                       # Write request sizes (log2)
system.mem_ctrls3.rdQLenPdf::0                 149018                       # What read queue length does an incoming req see
system.mem_ctrls3.rdQLenPdf::1                  31839                       # What read queue length does an incoming req see
system.mem_ctrls3.rdQLenPdf::2                  25783                       # What read queue length does an incoming req see
system.mem_ctrls3.rdQLenPdf::3                  20306                       # What read queue length does an incoming req see
system.mem_ctrls3.rdQLenPdf::4                  15758                       # What read queue length does an incoming req see
system.mem_ctrls3.rdQLenPdf::5                  12298                       # What read queue length does an incoming req see
system.mem_ctrls3.rdQLenPdf::6                   9887                       # What read queue length does an incoming req see
system.mem_ctrls3.rdQLenPdf::7                   8003                       # What read queue length does an incoming req see
system.mem_ctrls3.rdQLenPdf::8                   6438                       # What read queue length does an incoming req see
system.mem_ctrls3.rdQLenPdf::9                   5418                       # What read queue length does an incoming req see
system.mem_ctrls3.rdQLenPdf::10                  4607                       # What read queue length does an incoming req see
system.mem_ctrls3.rdQLenPdf::11                  3907                       # What read queue length does an incoming req see
system.mem_ctrls3.rdQLenPdf::12                  3337                       # What read queue length does an incoming req see
system.mem_ctrls3.rdQLenPdf::13                  2810                       # What read queue length does an incoming req see
system.mem_ctrls3.rdQLenPdf::14                  2365                       # What read queue length does an incoming req see
system.mem_ctrls3.rdQLenPdf::15                  2094                       # What read queue length does an incoming req see
system.mem_ctrls3.rdQLenPdf::16                  1810                       # What read queue length does an incoming req see
system.mem_ctrls3.rdQLenPdf::17                  1565                       # What read queue length does an incoming req see
system.mem_ctrls3.rdQLenPdf::18                  1286                       # What read queue length does an incoming req see
system.mem_ctrls3.rdQLenPdf::19                  1196                       # What read queue length does an incoming req see
system.mem_ctrls3.rdQLenPdf::20                  1072                       # What read queue length does an incoming req see
system.mem_ctrls3.rdQLenPdf::21                   955                       # What read queue length does an incoming req see
system.mem_ctrls3.rdQLenPdf::22                   806                       # What read queue length does an incoming req see
system.mem_ctrls3.rdQLenPdf::23                   756                       # What read queue length does an incoming req see
system.mem_ctrls3.rdQLenPdf::24                   706                       # What read queue length does an incoming req see
[...]
system.ruby.L2Cache_Controller.MT_MB.L1_GETX::total           11                      
system.ruby.L2Cache_Controller.MT_MB.L1_PUTX |           1      1.67%      1.67% |           2      3.33%      5.00% |           1      1.67%      6.67% |           3      5.00%     11.67% |           1      1.67%     13.33% |           1      1.67%     15.00% |           2      3.33%     18.33% |           4      6.67%     25.00% |           3      5.00%     30.00% |           1      1.67%     31.67% |           2      3.33%     35.00% |           3      5.00%     40.00% |           2      3.33%     43.33% |           4      6.67%     50.00% |           1      1.67%     51.67% |           2      3.33%     55.00% |           3      5.00%     60.00% |           0      0.00%     60.00% |           0      0.00%     60.00% |           2      3.33%     63.33% |           5      8.33%     71.67% |           1      1.67%     73.33% |           4      6.67%     80.00% |           1      1.67%     81.67% |           0      0.00%     81.67% |           2      3.33%     85.00% |           3      5.00%     90.00% |           3      5.00%     95.00% |           2      3.33%     98.33% |           1      1.67%    100.00% |           0      0.00%    100.00% |           0      0.00%    100.00%
system.ruby.L2Cache_Controller.MT_MB.L1_PUTX::total           60                      
system.ruby.L2Cache_Controller.MT_MB.Exclusive_Unblock |      153325      5.66%      5.66% |       83370      3.08%      8.74% |       82157      3.03%     11.78% |       83028      3.07%     14.84% |       82285      3.04%     17.88% |       81932      3.03%     20.91% |       81992      3.03%     23.93% |       81633      3.01%     26.95% |       81567      3.01%     29.96% |       82671      3.05%     33.01% |       83810      3.10%     36.11% |       83105      3.07%     39.18% |       82701      3.05%     42.23% |       81446      3.01%     45.24% |       80911      2.99%     48.23% |       81233      3.00%     51.23% |       82183      3.04%     54.26% |       81517      3.01%     57.27% |       82326      3.04%     60.31% |       82567      3.05%     63.36% |       82476      3.05%     66.41% |       84357      3.12%     69.52% |       82303      3.04%     72.56% |       81756      3.02%     75.58% |       81775      3.02%     78.60% |       82124      3.03%     81.64% |       81987      3.03%     84.66% |       81704      3.02%     87.68% |       82197      3.04%     90.72% |       81364      3.00%     93.72% |       84200      3.11%     96.83% |       85822      3.17%    100.00%
system.ruby.L2Cache_Controller.MT_MB.Exclusive_Unblock::total      2707824                      
system.ruby.L2Cache_Controller.MT_IIB.L1_GETS |           3     11.11%     11.11% |           1      3.70%     14.81% |           0      0.00%     14.81% |           0      0.00%     14.81% |           1      3.70%     18.52% |           0      0.00%     18.52% |           0      0.00%     18.52% |           0      0.00%     18.52% |           0      0.00%     18.52% |           1      3.70%     22.22% |           0      0.00%     22.22% |           1      3.70%     25.93% |           1      3.70%     29.63% |           0      0.00%     29.63% |           1      3.70%     33.33% |           1      3.70%     37.04% |           0      0.00%     37.04% |           0      0.00%     37.04% |           2      7.41%     44.44% |           0      0.00%     44.44% |           0      0.00%     44.44% |           0      0.00%     44.44% |           2      7.41%     51.85% |           1      3.70%     55.56% |           3     11.11%     66.67% |           1      3.70%     70.37% |           4     14.81%     85.19% |           0      0.00%     85.19% |           0      0.00%     85.19% |           1      3.70%     88.89% |           1      3.70%     92.59% |           2      7.41%    100.00%
system.ruby.L2Cache_Controller.MT_IIB.L1_GETS::total           27                      
system.ruby.L2Cache_Controller.MT_IIB.L1_PUTX |           3      1.28%      1.28% |           5      2.13%      3.40% |           8      3.40%      6.81% |           2      0.85%      7.66% |           4      1.70%      9.36% |          10      4.26%     13.62% |           4      1.70%     15.32% |           5      2.13%     17.45% |           7      2.98%     20.43% |           2      0.85%     21.28% |           5      2.13%     23.40% |          14      5.96%     29.36% |           7      2.98%     32.34% |          13      5.53%     37.87% |           8      3.40%     41.28% |          13      5.53%     46.81% |          15      6.38%     53.19% |           5      2.13%     55.32% |           5      2.13%     57.45% |           9      3.83%     61.28% |           8      3.40%     64.68% |           5      2.13%     66.81% |           8      3.40%     70.21% |          12      5.11%     75.32% |          18      7.66%     82.98% |           7      2.98%     85.96% |           9      3.83%     89.79% |           6      2.55%     92.34% |           2      0.85%     93.19% |           5      2.13%     95.32% |           6      2.55%     97.87% |           5      2.13%    100.00%
system.ruby.L2Cache_Controller.MT_IIB.L1_PUTX::total          235                      
system.ruby.L2Cache_Controller.MT_IIB.WB_Data |           0      0.00%      0.00% |           0      0.00%      0.00% |           0      0.00%      0.00% |           0      0.00%      0.00% |           0      0.00%      0.00% |           0      0.00%      0.00% |           0      0.00%      0.00% |           0      0.00%      0.00% |           0      0.00%      0.00% |           0      0.00%      0.00% |           0      0.00%      0.00% |           0      0.00%      0.00% |           0      0.00%      0.00% |           0      0.00%      0.00% |           0      0.00%      0.00% |           0      0.00%      0.00% |           0      0.00%      0.00% |           0      0.00%      0.00% |           0      0.00%      0.00% |           0      0.00%      0.00% |           0      0.00%      0.00% |           0      0.00%      0.00% |           0      0.00%      0.00% |           0      0.00%      0.00% |           0      0.00%      0.00% |           2    100.00%    100.00% |           0      0.00%    100.00% |           0      0.00%    100.00% |           0      0.00%    100.00% |           0      0.00%    100.00% |           0      0.00%    100.00% |           0      0.00%    100.00%
system.ruby.L2Cache_Controller.MT_IIB.WB_Data::total            2                      
system.ruby.L2Cache_Controller.MT_IIB.WB_Data_clean |        1868      3.13%      3.13% |        1837      3.08%      6.21% |        1846      3.10%      9.31% |        1868      3.13%     12.44% |        1851      3.10%     15.55% |        1827      3.06%     18.61% |        1858      3.12%     21.73% |        1827      3.06%     24.79% |        1816      3.05%     27.84% |        1859      3.12%     30.96% |        1848      3.10%     34.06% |        1868      3.13%     37.19% |        1872      3.14%     40.33% |        1817      3.05%     43.38% |        1859      3.12%     46.50% |        1882      3.16%     49.65% |        1917      3.22%     52.87% |        1874      3.14%     56.01% |        1898      3.18%     59.20% |        1895      3.18%     62.37% |        1885      3.16%     65.54% |        1860      3.12%     68.66% |        1903      3.19%     71.85% |        1880      3.15%     75.00% |        1882      3.16%     78.16% |        1842      3.09%     81.25% |        1865      3.13%     84.38% |        1879      3.15%     87.53% |        1903      3.19%     90.72% |        1818      3.05%     93.77% |        1869      3.13%     96.90% |        1846      3.10%    100.00%
system.ruby.L2Cache_Controller.MT_IIB.WB_Data_clean::total        59619                      
system.ruby.L2Cache_Controller.MT_IIB.Unblock |          20      0.98%      0.98% |          40      1.95%      2.93% |          58      2.83%      5.76% |          66      3.22%      8.98% |          47      2.29%     11.28% |          70      3.42%     14.70% |          55      2.69%     17.38% |          61      2.98%     20.36% |         123      6.01%     26.37% |          73      3.56%     29.93% |          67      3.27%     33.20% |          59      2.88%     36.08% |          65      3.17%     39.26% |          99      4.83%     44.09% |          61      2.98%     47.07% |          42      2.05%     49.12% |          68      3.32%     52.44% |          93      4.54%     56.98% |          61      2.98%     59.96% |          59      2.88%     62.84% |          99      4.83%     67.68% |          61      2.98%     70.65% |          56      2.73%     73.39% |          55      2.69%     76.07% |          58      2.83%     78.91% |          53      2.59%     81.49% |          67      3.27%     84.77% |          47      2.29%     87.06% |          36      1.76%     88.82% |          94      4.59%     93.41% |          72      3.52%     96.92% |          63      3.08%    100.00%
system.ruby.L2Cache_Controller.MT_IIB.Unblock::total         2048                      
system.ruby.L2Cache_Controller.MT_IB.WB_Data_clean |          20      0.98%      0.98% |          40      1.95%      2.93% |          58      2.83%      5.76% |          66      3.22%      8.98% |          47      2.29%     11.28% |          70      3.42%     14.70% |          55      2.69%     17.38% |          61      2.98%     20.36% |         123      6.01%     26.37% |          73      3.56%     29.93% |          67      3.27%     33.20% |          59      2.88%     36.08% |          65      3.17%     39.26% |          99      4.83%     44.09% |          61      2.98%     47.07% |          42      2.05%     49.12% |          68      3.32%     52.44% |          93      4.54%     56.98% |          61      2.98%     59.96% |          59      2.88%     62.84% |          99      4.83%     67.68% |          61      2.98%     70.65% |          56      2.73%     73.39% |          55      2.69%     76.07% |          58      2.83%     78.91% |          53      2.59%     81.49% |          67      3.27%     84.77% |          47      2.29%     87.06% |          36      1.76%     88.82% |          94      4.59%     93.41% |          72      3.52%     96.92% |          63      3.08%    100.00%
system.ruby.L2Cache_Controller.MT_IB.WB_Data_clean::total         2048                      
system.ruby.L2Cache_Controller.MT_SB.L1_GETS |           0      0.00%      0.00% |           0      0.00%      0.00% |           1     33.33%     33.33% |           0      0.00%     33.33% |           0      0.00%     33.33% |           0      0.00%     33.33% |           0      0.00%     33.33% |           0      0.00%     33.33% |           0      0.00%     33.33% |           0      0.00%     33.33% |           0      0.00%     33.33% |           0      0.00%     33.33% |           0      0.00%     33.33% |           0      0.00%     33.33% |           0      0.00%     33.33% |           0      0.00%     33.33% |           0      0.00%     33.33% |           0      0.00%     33.33% |           0      0.00%     33.33% |           0      0.00%     33.33% |           0      0.00%     33.33% |           0      0.00%     33.33% |           0      0.00%     33.33% |           0      0.00%     33.33% |           0      0.00%     33.33% |           1     33.33%     66.67% |           0      0.00%     66.67% |           0      0.00%     66.67% |           1     33.33%    100.00% |           0      0.00%    100.00% |           0      0.00%    100.00% |           0      0.00%    100.00%
system.ruby.L2Cache_Controller.MT_SB.L1_GETS::total            3                      
system.ruby.L2Cache_Controller.MT_SB.L1_PUTX |           0      0.00%      0.00% |           1     12.50%     12.50% |           0      0.00%     12.50% |           0      0.00%     12.50% |           0      0.00%     12.50% |           0      0.00%     12.50% |           0      0.00%     12.50% |           0      0.00%     12.50% |           0      0.00%     12.50% |           0      0.00%     12.50% |           0      0.00%     12.50% |           0      0.00%     12.50% |           0      0.00%     12.50% |           0      0.00%     12.50% |           0      0.00%     12.50% |           0      0.00%     12.50% |           1     12.50%     25.00% |           0      0.00%     25.00% |           0      0.00%     25.00% |           1     12.50%     37.50% |           1     12.50%     50.00% |           1     12.50%     62.50% |           0      0.00%     62.50% |           0      0.00%     62.50% |           2     25.00%     87.50% |           0      0.00%     87.50% |           1     12.50%    100.00% |           0      0.00%    100.00% |           0      0.00%    100.00% |           0      0.00%    100.00% |           0      0.00%    100.00% |           0      0.00%    100.00%
system.ruby.L2Cache_Controller.MT_SB.L1_PUTX::total            8                      
system.ruby.L2Cache_Controller.MT_SB.Unblock |        1868      3.13%      3.13% |        1837      3.08%      6.21% |        1846      3.10%      9.31% |        1868      3.13%     12.44% |        1851      3.10%     15.55% |        1827      3.06%     18.61% |        1858      3.12%     21.73% |        1827      3.06%     24.79% |        1816      3.05%     27.84% |        1859      3.12%     30.96% |        1848      3.10%     34.06% |        1868      3.13%     37.19% |        1872      3.14%     40.33% |        1817      3.05%     43.38% |        1859      3.12%     46.50% |        1882      3.16%     49.65% |        1917      3.22%     52.87% |        1874      3.14%     56.01% |        1898      3.18%     59.19% |        1895      3.18%     62.37% |        1885      3.16%     65.53% |        1860      3.12%     68.65% |        1903      3.19%     71.85% |        1880      3.15%     75.00% |        1882      3.16%     78.16% |        1844      3.09%     81.25% |        1865      3.13%     84.38% |        1879      3.15%     87.53% |        1903      3.19%     90.72% |        1818      3.05%     93.77% |        1869      3.13%     96.90% |        1846      3.10%    100.00%
system.ruby.L2Cache_Controller.MT_SB.Unblock::total        59621                      
system.ruby.SimicsNetworkPortInterface_Controller.MessageSend |      779386     23.95%     23.95% |     1626817     50.00%     73.95% |      112932      3.47%     77.43% |      107206      3.29%     80.72% |       97842      3.01%     83.73% |      112836      3.47%     87.20% |      109885      3.38%     90.57% |      100171      3.08%     93.65% |      103780      3.19%     96.84% |      102779      3.16%    100.00% |           0      0.00%    100.00% |           0      0.00%    100.00% |           0      0.00%    100.00% |           0      0.00%    100.00% |           0      0.00%    100.00% |           0      0.00%    100.00% |           0      0.00%    100.00% |           0      0.00%    100.00% |           0      0.00%    100.00% |           0      0.00%    100.00% |           0      0.00%    100.00% |           0      0.00%    100.00% |           0      0.00%    100.00% |           0      0.00%    100.00% |           0      0.00%    100.00% |           0      0.00%    100.00% |           0      0.00%    100.00% |           0      0.00%    100.00% |           0      0.00%    100.00% |           0      0.00%    100.00% |           0      0.00%    100.00% |           0      0.00%    100.00%
system.ruby.SimicsNetworkPortInterface_Controller.MessageSend::total      3253634                      
system.ruby.SimicsNetworkPortInterface_Controller.MessageRecv |      779386     23.95%     23.95% |     1626817     50.00%     73.95% |      112932      3.47%     77.43% |      107206      3.29%     80.72% |       97842      3.01%     83.73% |      112836      3.47%     87.20% |      109885      3.38%     90.57% |      100171      3.08%     93.65% |      103780      3.19%     96.84% |      102779      3.16%    100.00% |           0      0.00%    100.00% |           0      0.00%    100.00% |           0      0.00%    100.00% |           0      0.00%    100.00% |           0      0.00%    100.00% |           0      0.00%    100.00% |           0      0.00%    100.00% |           0      0.00%    100.00% |           0      0.00%    100.00% |           0      0.00%    100.00% |           0      0.00%    100.00% |           0      0.00%    100.00% |           0      0.00%    100.00% |           0      0.00%    100.00% |           0      0.00%    100.00% |           0      0.00%    100.00% |           0      0.00%    100.00% |           0      0.00%    100.00% |           0      0.00%    100.00% |           0      0.00%    100.00% |           0      0.00%    100.00% |           0      0.00%    100.00%
system.ruby.SimicsNetworkPortInterface_Controller.MessageRecv::total      3253634                      
system.ruby.SimicsNetworkPortInterface_Controller.A.MessageSend |      779386     23.95%     23.95% |     1626817     50.00%     73.95% |      112932      3.47%     77.43% |      107206      3.29%     80.72% |       97842      3.01%     83.73% |      112836      3.47%     87.20% |      109885      3.38%     90.57% |      100171      3.08%     93.65% |      103780      3.19%     96.84% |      102779      3.16%    100.00% |           0      0.00%    100.00% |           0      0.00%    100.00% |           0      0.00%    100.00% |           0      0.00%    100.00% |           0      0.00%    100.00% |           0      0.00%    100.00% |           0      0.00%    100.00% |           0      0.00%    100.00% |           0      0.00%    100.00% |           0      0.00%    100.00% |           0      0.00%    100.00% |           0      0.00%    100.00% |           0      0.00%    100.00% |           0      0.00%    100.00% |           0      0.00%    100.00% |           0      0.00%    100.00% |           0      0.00%    100.00% |           0      0.00%    100.00% |           0      0.00%    100.00% |           0      0.00%    100.00% |           0      0.00%    100.00% |           0      0.00%    100.00%
system.ruby.SimicsNetworkPortInterface_Controller.A.MessageSend::total      3253634                      
system.ruby.SimicsNetworkPortInterface_Controller.A.MessageRecv |      779386     23.95%     23.95% |     1626817     50.00%     73.95% |      112932      3.47%     77.43% |      107206      3.29%     80.72% |       97842      3.01%     83.73% |      112836      3.47%     87.20% |      109885      3.38%     90.57% |      100171      3.08%     93.65% |      103780      3.19%     96.84% |      102779      3.16%    100.00% |           0      0.00%    100.00% |           0      0.00%    100.00% |           0      0.00%    100.00% |           0      0.00%    100.00% |           0      0.00%    100.00% |           0      0.00%    100.00% |           0      0.00%    100.00% |           0      0.00%    100.00% |           0      0.00%    100.00% |           0      0.00%    100.00% |           0      0.00%    100.00% |           0      0.00%    100.00% |           0      0.00%    100.00% |           0      0.00%    100.00% |           0      0.00%    100.00% |           0      0.00%    100.00% |           0      0.00%    100.00% |           0      0.00%    100.00% |           0      0.00%    100.00% |           0      0.00%    100.00% |           0      0.00%    100.00% |           0      0.00%    100.00%
system.ruby.SimicsNetworkPortInterface_Controller.A.MessageRecv::total      3253634                      
system.switch_cpus.kern.inst.arm                    0                       # number of arm instructions executed
system.switch_cpus.kern.inst.quiesce                0                       # number of quiesce instructions executed

---------- End Simulation Statistics   ----------
