
---------- Begin Simulation Statistics ----------
sim_seconds                                  0.130713                       # Number of seconds simulated
sim_ticks                                130713038000                       # Number of ticks simulated
final_tick                               5306881116500                       # Number of ticks from beginning of simulation (restored from checkpoints and never reset)
sim_freq                                 1000000000000                       # Frequency of simulated ticks
host_inst_rate                                  33830                       # Simulator instruction rate (inst/s)
host_op_rate                                    58409                       # Simulator op (including micro ops) rate (op/s)
host_tick_rate                              103587473                       # Simulator tick rate (ticks/s)
host_mem_usage                                3746272                       # Number of bytes of host memory used
host_seconds                                  1261.86                       # Real time elapsed on the host
sim_insts                                    42689264                       # Number of instructions simulated
sim_ops                                      73704038                       # Number of ops (including micro ops) simulated
system.voltage_domain.voltage                       1                       # Voltage in Volts
system.clk_domain.clock                           500                       # Clock period in ticks
system.mem_ctrls0.bytes_read::ruby.dir_cntrl0     21512384                       # Number of bytes read from this memory
system.mem_ctrls0.bytes_read::total          21512384                       # Number of bytes read from this memory
system.mem_ctrls0.bytes_written::ruby.dir_cntrl0     13554688                       # Number of bytes written to this memory
system.mem_ctrls0.bytes_written::total       13554688                       # Number of bytes written to this memory
system.mem_ctrls0.num_reads::ruby.dir_cntrl0       336131                       # Number of read requests responded to by this memory
system.mem_ctrls0.num_reads::total             336131                       # Number of read requests responded to by this memory
system.mem_ctrls0.num_writes::ruby.dir_cntrl0       211792                       # Number of write requests responded to by this memory
system.mem_ctrls0.num_writes::total            211792                       # Number of write requests responded to by this memory
system.mem_ctrls0.bw_read::ruby.dir_cntrl0    164577186                       # Total read bandwidth from this memory (bytes/s)
system.mem_ctrls0.bw_read::total            164577186                       # Total read bandwidth from this memory (bytes/s)
system.mem_ctrls0.bw_write::ruby.dir_cntrl0    103698057                       # Write bandwidth from this memory (bytes/s)
system.mem_ctrls0.bw_write::total           103698057                       # Write bandwidth from this memory (bytes/s)
system.mem_ctrls0.bw_total::ruby.dir_cntrl0    268275243                       # Total bandwidth to/from this memory (bytes/s)
system.mem_ctrls0.bw_total::total           268275243                       # Total bandwidth to/from this memory (bytes/s)
system.mem_ctrls0.readReqs                     336131                       # Number of read requests accepted
system.mem_ctrls0.writeReqs                    211792                       # Number of write requests accepted
system.mem_ctrls0.readBursts                   336131                       # Number of DRAM read bursts, including those serviced by the write queue
system.mem_ctrls0.writeBursts                  211792                       # Number of DRAM write bursts, including those merged in the write queue
system.mem_ctrls0.bytesReadDRAM              21511744                       # Total number of bytes read from DRAM
system.mem_ctrls0.bytesReadWrQ                    640                       # Total number of bytes read from write queue
system.mem_ctrls0.bytesWritten               13554496                       # Total number of bytes written to DRAM
system.mem_ctrls0.bytesReadSys               21512384                       # Total read bytes from the system interface side
system.mem_ctrls0.bytesWrittenSys            13554688                       # Total written bytes from the system interface side
system.mem_ctrls0.servicedByWrQ                    10                       # Number of DRAM read bursts serviced by the write queue
system.mem_ctrls0.mergedWrBursts                    0                       # Number of DRAM write bursts merged with an existing one
system.mem_ctrls0.neitherReadNorWriteReqs            0                       # Number of requests that are neither read nor write
system.mem_ctrls0.perBankRdBursts::0            20728                       # Per bank write bursts
system.mem_ctrls0.perBankRdBursts::1            21351                       # Per bank write bursts
system.mem_ctrls0.perBankRdBursts::2            20931                       # Per bank write bursts
system.mem_ctrls0.perBankRdBursts::3            21426                       # Per bank write bursts
system.mem_ctrls0.perBankRdBursts::4            21033                       # Per bank write bursts
system.mem_ctrls0.perBankRdBursts::5            21272                       # Per bank write bursts
system.mem_ctrls0.perBankRdBursts::6            21167                       # Per bank write bursts
system.mem_ctrls0.perBankRdBursts::7            21142                       # Per bank write bursts
system.mem_ctrls0.perBankRdBursts::8            20894                       # Per bank write bursts
system.mem_ctrls0.perBankRdBursts::9            21084                       # Per bank write bursts
system.mem_ctrls0.perBankRdBursts::10           20845                       # Per bank write bursts
system.mem_ctrls0.perBankRdBursts::11           21240                       # Per bank write bursts
system.mem_ctrls0.perBankRdBursts::12           20718                       # Per bank write bursts
system.mem_ctrls0.perBankRdBursts::13           20621                       # Per bank write bursts
system.mem_ctrls0.perBankRdBursts::14           20857                       # Per bank write bursts
system.mem_ctrls0.perBankRdBursts::15           20812                       # Per bank write bursts
system.mem_ctrls0.perBankWrBursts::0            13291                       # Per bank write bursts
system.mem_ctrls0.perBankWrBursts::1            13241                       # Per bank write bursts
system.mem_ctrls0.perBankWrBursts::2            13173                       # Per bank write bursts
system.mem_ctrls0.perBankWrBursts::3            13378                       # Per bank write bursts
system.mem_ctrls0.perBankWrBursts::4            13222                       # Per bank write bursts
system.mem_ctrls0.perBankWrBursts::5            13328                       # Per bank write bursts
system.mem_ctrls0.perBankWrBursts::6            13233                       # Per bank write bursts
system.mem_ctrls0.perBankWrBursts::7            13466                       # Per bank write bursts
system.mem_ctrls0.perBankWrBursts::8            13160                       # Per bank write bursts
system.mem_ctrls0.perBankWrBursts::9            13358                       # Per bank write bursts
system.mem_ctrls0.perBankWrBursts::10           13158                       # Per bank write bursts
system.mem_ctrls0.perBankWrBursts::11           13123                       # Per bank write bursts
system.mem_ctrls0.perBankWrBursts::12           13074                       # Per bank write bursts
system.mem_ctrls0.perBankWrBursts::13           13070                       # Per bank write bursts
system.mem_ctrls0.perBankWrBursts::14           13364                       # Per bank write bursts
system.mem_ctrls0.perBankWrBursts::15           13150                       # Per bank write bursts
system.mem_ctrls0.numRdRetry                   108119                       # Number of times read queue was full causing retry
system.mem_ctrls0.numWrRetry                     2659                       # Number of times write queue was full causing retry
system.mem_ctrls0.totGap                 130712465500                       # Total gap between requests
system.mem_ctrls0.readPktSize::0                    0                       # Read request sizes (log2)
system.mem_ctrls0.readPktSize::1                    0                       # Read request sizes (log2)
system.mem_ctrls0.readPktSize::2                    0                       # Read request sizes (log2)
system.mem_ctrls0.readPktSize::3                    0                       # Read request sizes (log2)
system.mem_ctrls0.readPktSize::4                    0                       # Read request sizes (log2)
system.mem_ctrls0.readPktSize::5                    0                       # Read request sizes (log2)
system.mem_ctrls0.readPktSize::6               336131                       # Read request sizes (log2)
system.mem_ctrls0.writePktSize::0                   0                       # Write request sizes (log2)
system.mem_ctrls0.writePktSize::1                   0                       # Write request sizes (log2)
system.mem_ctrls0.writePktSize::2                   0                       # Write request sizes (log2)
system.mem_ctrls0.writePktSize::3                   0                       # Write request sizes (log2)
system.mem_ctrls0.writePktSize::4                   0                       # Write request sizes (log2)
system.mem_ctrls0.writePktSize::5                   0                       # Write request sizes (log2)
system.mem_ctrls0.writePktSize::6              211792                       # Write request sizes (log2)
system.mem_ctrls0.rdQLenPdf::0                 175715                       # What read queue length does an incoming req see
system.mem_ctrls0.rdQLenPdf::1                   5139                       # What read queue length does an incoming req see
system.mem_ctrls0.rdQLenPdf::2                   2481                       # What read queue length does an incoming req see
system.mem_ctrls0.rdQLenPdf::3                   1153                       # What read queue length does an incoming req see
system.mem_ctrls0.rdQLenPdf::4                   1219                       # What read queue length does an incoming req see
system.mem_ctrls0.rdQLenPdf::5                   1343                       # What read queue length does an incoming req see
system.mem_ctrls0.rdQLenPdf::6                   1464                       # What read queue length does an incoming req see
system.mem_ctrls0.rdQLenPdf::7                   1513                       # What read queue length does an incoming req see
system.mem_ctrls0.rdQLenPdf::8                   1545                       # What read queue length does an incoming req see
system.mem_ctrls0.rdQLenPdf::9                   1616                       # What read queue length does an incoming req see
system.mem_ctrls0.rdQLenPdf::10                  1594                       # What read queue length does an incoming req see
system.mem_ctrls0.rdQLenPdf::11                  1701                       # What read queue length does an incoming req see
system.mem_ctrls0.rdQLenPdf::12                  1688                       # What read queue length does an incoming req see
system.mem_ctrls0.rdQLenPdf::13                  1636                       # What read queue length does an incoming req see
system.mem_ctrls0.rdQLenPdf::14                  1671                       # What read queue length does an incoming req see
system.mem_ctrls0.rdQLenPdf::15                  1637                       # What read queue length does an incoming req see
system.mem_ctrls0.rdQLenPdf::16                  1594                       # What read queue length does an incoming req see
system.mem_ctrls0.rdQLenPdf::17                  1537                       # What read queue length does an incoming req see
system.mem_ctrls0.rdQLenPdf::18                  1418                       # What read queue length does an incoming req see
system.mem_ctrls0.rdQLenPdf::19                  1435                       # What read queue length does an incoming req see
system.mem_ctrls0.rdQLenPdf::20                  1500                       # What read queue length does an incoming req see
system.mem_ctrls0.rdQLenPdf::21                  1537                       # What read queue length does an incoming req see
system.mem_ctrls0.rdQLenPdf::22                  1460                       # What read queue length does an incoming req see
system.mem_ctrls0.rdQLenPdf::23                  1468                       # What read queue length does an incoming req see
system.mem_ctrls0.rdQLenPdf::24                  1479                       # What read queue length does an incoming req see
system.mem_ctrls0.rdQLenPdf::25                  1470                       # What read queue length does an incoming req see
system.mem_ctrls0.rdQLenPdf::26                  1473                       # What read queue length does an incoming req see
system.mem_ctrls0.rdQLenPdf::27                  1526                       # What read queue length does an incoming req see
system.mem_ctrls0.rdQLenPdf::28                  1555                       # What read queue length does an incoming req see
system.mem_ctrls0.rdQLenPdf::29                  1582                       # What read queue length does an incoming req see
system.mem_ctrls0.rdQLenPdf::30                  1734                       # What read queue length does an incoming req see
system.mem_ctrls0.rdQLenPdf::31                110238                       # What read queue length does an incoming req see
system.mem_ctrls0.wrQLenPdf::0                  37718                       # What write queue length does an incoming req see
system.mem_ctrls0.wrQLenPdf::1                  38664                       # What write queue length does an incoming req see
system.mem_ctrls0.wrQLenPdf::2                  39195                       # What write queue length does an incoming req see
system.mem_ctrls0.wrQLenPdf::3                  39419                       # What write queue length does an incoming req see
system.mem_ctrls0.wrQLenPdf::4                  39281                       # What write queue length does an incoming req see
system.mem_ctrls0.wrQLenPdf::5                   5503                       # What write queue length does an incoming req see
system.mem_ctrls0.wrQLenPdf::6                   5982                       # What write queue length does an incoming req see
system.mem_ctrls0.wrQLenPdf::7                   6030                       # What write queue length does an incoming req see
system.mem_ctrls0.bytesPerActivate::samples       164294                       # Bytes accessed per row activation
system.mem_ctrls0.bytesPerActivate::mean   213.429681                       # Bytes accessed per row activation
system.mem_ctrls0.bytesPerActivate::gmean   159.537748                       # Bytes accessed per row activation
system.mem_ctrls0.bytesPerActivate::stdev   169.944823                       # Bytes accessed per row activation
system.mem_ctrls0.bytesPerActivate::0-127        57778     35.17%     35.17% # Bytes accessed per row activation
system.mem_ctrls0.bytesPerActivate::128-255        36150     22.00%     57.17% # Bytes accessed per row activation
system.mem_ctrls0.bytesPerActivate::256-383        54604     33.24%     90.41% # Bytes accessed per row activation
system.mem_ctrls0.bytesPerActivate::384-511         6227      3.79%     94.20% # Bytes accessed per row activation
system.mem_ctrls0.bytesPerActivate::512-639         4283      2.61%     96.80% # Bytes accessed per row activation
system.mem_ctrls0.bytesPerActivate::640-767         1954      1.19%     97.99% # Bytes accessed per row activation
system.mem_ctrls0.bytesPerActivate::768-895         1115      0.68%     98.67% # Bytes accessed per row activation
system.mem_ctrls0.bytesPerActivate::896-1023          765      0.47%     99.14% # Bytes accessed per row activation
system.mem_ctrls0.bytesPerActivate::1024-1151         1418      0.86%    100.00% # Bytes accessed per row activation
system.mem_ctrls0.bytesPerActivate::total       164294                       # Bytes accessed per row activation
system.mem_ctrls0.rdPerTurnAround::samples        37923                       # Reads before turning the bus around for writes
system.mem_ctrls0.rdPerTurnAround::mean      8.863091                       # Reads before turning the bus around for writes
system.mem_ctrls0.rdPerTurnAround::stdev    23.655398                       # Reads before turning the bus around for writes
system.mem_ctrls0.rdPerTurnAround::0-127        37914     99.98%     99.98% # Reads before turning the bus around for writes
system.mem_ctrls0.rdPerTurnAround::128-255            8      0.02%    100.00% # Reads before turning the bus around for writes
system.mem_ctrls0.rdPerTurnAround::3968-4095            1      0.00%    100.00% # Reads before turning the bus around for writes
system.mem_ctrls0.rdPerTurnAround::total        37923                       # Reads before turning the bus around for writes
system.mem_ctrls0.wrPerTurnAround::samples        37923                       # Writes before turning the bus around for reads
system.mem_ctrls0.wrPerTurnAround::mean      5.584711                       # Writes before turning the bus around for reads
system.mem_ctrls0.wrPerTurnAround::gmean     5.404415                       # Writes before turning the bus around for reads
system.mem_ctrls0.wrPerTurnAround::stdev     1.840486                       # Writes before turning the bus around for reads
system.mem_ctrls0.wrPerTurnAround::4-7          34470     90.89%     90.89% # Writes before turning the bus around for reads
system.mem_ctrls0.wrPerTurnAround::8-11          2414      6.37%     97.26% # Writes before turning the bus around for reads
system.mem_ctrls0.wrPerTurnAround::12-15          659      1.74%     99.00% # Writes before turning the bus around for reads
system.mem_ctrls0.wrPerTurnAround::16-19          380      1.00%    100.00% # Writes before turning the bus around for reads
system.mem_ctrls0.wrPerTurnAround::total        37923                       # Writes before turning the bus around for reads
system.mem_ctrls0.totQLat                 34632597277                       # Total ticks spent queuing
system.mem_ctrls0.totMemAccLat            40934866027                       # Total ticks spent from burst creation until serviced by the DRAM
system.mem_ctrls0.totBusLat                1680605000                       # Total ticks spent in databus transfers
system.mem_ctrls0.avgQLat                   103036.10                       # Average queueing delay per DRAM burst
system.mem_ctrls0.avgBusLat                   5000.00                       # Average bus latency per DRAM burst
system.mem_ctrls0.avgMemAccLat              121786.10                       # Average memory access latency per DRAM burst
system.mem_ctrls0.avgRdBW                      164.57                       # Average DRAM read bandwidth in MiByte/s
system.mem_ctrls0.avgWrBW                      103.70                       # Average achieved write bandwidth in MiByte/s
system.mem_ctrls0.avgRdBWSys                   164.58                       # Average system read bandwidth in MiByte/s
system.mem_ctrls0.avgWrBWSys                   103.70                       # Average system write bandwidth in MiByte/s
system.mem_ctrls0.peakBW                     12800.00                       # Theoretical peak bandwidth in MiByte/s
system.mem_ctrls0.busUtil                        2.10                       # Data bus utilization in percentage
system.mem_ctrls0.busUtilRead                    1.29                       # Data bus utilization in percentage for reads
system.mem_ctrls0.busUtilWrite                   0.81                       # Data bus utilization in percentage for writes
system.mem_ctrls0.avgRdQLen                      1.27                       # Average read queue length when enqueuing
system.mem_ctrls0.avgWrQLen                      2.96                       # Average write queue length when enqueuing
system.mem_ctrls0.readRowHits                  248355                       # Number of row buffer hits during reads
system.mem_ctrls0.writeRowHits                 135251                       # Number of row buffer hits during writes
system.mem_ctrls0.readRowHitRate                73.89                       # Row buffer hit rate for reads
system.mem_ctrls0.writeRowHitRate               63.86                       # Row buffer hit rate for writes
system.mem_ctrls0.avgGap                    238559.92                       # Average gap between requests
system.mem_ctrls0.pageHitRate                   70.01                       # Row buffer hit rate, read and write combined
system.mem_ctrls0.memoryStateTime::IDLE   28041552250                       # Time in different power states
system.mem_ctrls0.memoryStateTime::REF     4364620000                       # Time in different power states
system.mem_ctrls0.memoryStateTime::PRE_PDN            0                       # Time in different power states
system.mem_ctrls0.memoryStateTime::ACT    98301880250                       # Time in different power states
system.mem_ctrls0.memoryStateTime::ACT_PDN            0                       # Time in different power states
system.mem_ctrls0.actEnergy::0              628115040                       # Energy for activate commands per rank (pJ)
system.mem_ctrls0.actEnergy::1              613887120                       # Energy for activate commands per rank (pJ)
system.mem_ctrls0.preEnergy::0              342721500                       # Energy for precharge commands per rank (pJ)
system.mem_ctrls0.preEnergy::1              334958250                       # Energy for precharge commands per rank (pJ)
system.mem_ctrls0.readEnergy::0            1318278000                       # Energy for read commands per rank (pJ)
system.mem_ctrls0.readEnergy::1            1303083600                       # Energy for read commands per rank (pJ)
system.mem_ctrls0.writeEnergy::0            689024880                       # Energy for write commands per rank (pJ)
system.mem_ctrls0.writeEnergy::1            683335440                       # Energy for write commands per rank (pJ)
system.mem_ctrls0.refreshEnergy::0         8537196720                       # Energy for refresh commands per rank (pJ)
system.mem_ctrls0.refreshEnergy::1         8537196720                       # Energy for refresh commands per rank (pJ)
system.mem_ctrls0.actBackEnergy::0        49709735055                       # Energy for active background per rank (pJ)
system.mem_ctrls0.actBackEnergy::1        49276521090                       # Energy for active background per rank (pJ)
system.mem_ctrls0.preBackEnergy::0        34819792500                       # Energy for precharge background per rank (pJ)
system.mem_ctrls0.preBackEnergy::1        35199804750                       # Energy for precharge background per rank (pJ)
system.mem_ctrls0.totalEnergy::0          96044863695                       # Total energy per rank (pJ)
system.mem_ctrls0.totalEnergy::1          95948786970                       # Total energy per rank (pJ)
system.mem_ctrls0.averagePower::0          734.804566                       # Core power per rank (mW)
system.mem_ctrls0.averagePower::1          734.069518                       # Core power per rank (mW)
system.mem_ctrls1.bytes_read::ruby.dir_cntrl1     20813376                       # Number of bytes read from this memory
system.mem_ctrls1.bytes_read::total          20813376                       # Number of bytes read from this memory
system.mem_ctrls1.bytes_written::ruby.dir_cntrl1     12915136                       # Number of bytes written to this memory
system.mem_ctrls1.bytes_written::total       12915136                       # Number of bytes written to this memory
system.mem_ctrls1.num_reads::ruby.dir_cntrl1       325209                       # Number of read requests responded to by this memory
system.mem_ctrls1.num_reads::total             325209                       # Number of read requests responded to by this memory
system.mem_ctrls1.num_writes::ruby.dir_cntrl1       201799                       # Number of write requests responded to by this memory
system.mem_ctrls1.num_writes::total            201799                       # Number of write requests responded to by this memory
system.mem_ctrls1.bw_read::ruby.dir_cntrl1    159229533                       # Total read bandwidth from this memory (bytes/s)
system.mem_ctrls1.bw_read::total            159229533                       # Total read bandwidth from this memory (bytes/s)
system.mem_ctrls1.bw_write::ruby.dir_cntrl1     98805262                       # Write bandwidth from this memory (bytes/s)
system.mem_ctrls1.bw_write::total            98805262                       # Write bandwidth from this memory (bytes/s)
system.mem_ctrls1.bw_total::ruby.dir_cntrl1    258034795                       # Total bandwidth to/from this memory (bytes/s)
system.mem_ctrls1.bw_total::total           258034795                       # Total bandwidth to/from this memory (bytes/s)
system.mem_ctrls1.readReqs                     325209                       # Number of read requests accepted
system.mem_ctrls1.writeReqs                    201799                       # Number of write requests accepted
system.mem_ctrls1.readBursts                   325209                       # Number of DRAM read bursts, including those serviced by the write queue
system.mem_ctrls1.writeBursts                  201799                       # Number of DRAM write bursts, including those merged in the write queue
system.mem_ctrls1.bytesReadDRAM              20812672                       # Total number of bytes read from DRAM
system.mem_ctrls1.bytesReadWrQ                    704                       # Total number of bytes read from write queue
system.mem_ctrls1.bytesWritten               12915136                       # Total number of bytes written to DRAM
system.mem_ctrls1.bytesReadSys               20813376                       # Total read bytes from the system interface side
system.mem_ctrls1.bytesWrittenSys            12915136                       # Total written bytes from the system interface side
system.mem_ctrls1.servicedByWrQ                    11                       # Number of DRAM read bursts serviced by the write queue
system.mem_ctrls1.mergedWrBursts                    0                       # Number of DRAM write bursts merged with an existing one
system.mem_ctrls1.neitherReadNorWriteReqs            0                       # Number of requests that are neither read nor write
system.mem_ctrls1.perBankRdBursts::0            20059                       # Per bank write bursts
system.mem_ctrls1.perBankRdBursts::1            20699                       # Per bank write bursts
system.mem_ctrls1.perBankRdBursts::2            20233                       # Per bank write bursts
system.mem_ctrls1.perBankRdBursts::3            20713                       # Per bank write bursts
system.mem_ctrls1.perBankRdBursts::4            20403                       # Per bank write bursts
system.mem_ctrls1.perBankRdBursts::5            20577                       # Per bank write bursts
system.mem_ctrls1.perBankRdBursts::6            20484                       # Per bank write bursts
system.mem_ctrls1.perBankRdBursts::7            20551                       # Per bank write bursts
system.mem_ctrls1.perBankRdBursts::8            20194                       # Per bank write bursts
system.mem_ctrls1.perBankRdBursts::9            20382                       # Per bank write bursts
system.mem_ctrls1.perBankRdBursts::10           20151                       # Per bank write bursts
system.mem_ctrls1.perBankRdBursts::11           20570                       # Per bank write bursts
system.mem_ctrls1.perBankRdBursts::12           20031                       # Per bank write bursts
system.mem_ctrls1.perBankRdBursts::13           19907                       # Per bank write bursts
system.mem_ctrls1.perBankRdBursts::14           20111                       # Per bank write bursts
system.mem_ctrls1.perBankRdBursts::15           20133                       # Per bank write bursts
system.mem_ctrls1.perBankWrBursts::0            12667                       # Per bank write bursts
system.mem_ctrls1.perBankWrBursts::1            12629                       # Per bank write bursts
system.mem_ctrls1.perBankWrBursts::2            12554                       # Per bank write bursts
system.mem_ctrls1.perBankWrBursts::3            12757                       # Per bank write bursts
system.mem_ctrls1.perBankWrBursts::4            12611                       # Per bank write bursts
system.mem_ctrls1.perBankWrBursts::5            12712                       # Per bank write bursts
system.mem_ctrls1.perBankWrBursts::6            12598                       # Per bank write bursts
system.mem_ctrls1.perBankWrBursts::7            12833                       # Per bank write bursts
system.mem_ctrls1.perBankWrBursts::8            12534                       # Per bank write bursts
system.mem_ctrls1.perBankWrBursts::9            12723                       # Per bank write bursts
system.mem_ctrls1.perBankWrBursts::10           12538                       # Per bank write bursts
system.mem_ctrls1.perBankWrBursts::11           12500                       # Per bank write bursts
system.mem_ctrls1.perBankWrBursts::12           12462                       # Per bank write bursts
system.mem_ctrls1.perBankWrBursts::13           12450                       # Per bank write bursts
system.mem_ctrls1.perBankWrBursts::14           12695                       # Per bank write bursts
system.mem_ctrls1.perBankWrBursts::15           12536                       # Per bank write bursts
system.mem_ctrls1.numRdRetry                    89937                       # Number of times read queue was full causing retry
system.mem_ctrls1.numWrRetry                     2843                       # Number of times write queue was full causing retry
system.mem_ctrls1.totGap                 130712186500                       # Total gap between requests
system.mem_ctrls1.readPktSize::0                    0                       # Read request sizes (log2)
system.mem_ctrls1.readPktSize::1                    0                       # Read request sizes (log2)
system.mem_ctrls1.readPktSize::2                    0                       # Read request sizes (log2)
system.mem_ctrls1.readPktSize::3                    0                       # Read request sizes (log2)
system.mem_ctrls1.readPktSize::4                    0                       # Read request sizes (log2)
system.mem_ctrls1.readPktSize::5                    0                       # Read request sizes (log2)
system.mem_ctrls1.readPktSize::6               325209                       # Read request sizes (log2)
system.mem_ctrls1.writePktSize::0                   0                       # Write request sizes (log2)
system.mem_ctrls1.writePktSize::1                   0                       # Write request sizes (log2)
system.mem_ctrls1.writePktSize::2                   0                       # Write request sizes (log2)
system.mem_ctrls1.writePktSize::3                   0                       # Write request sizes (log2)
system.mem_ctrls1.writePktSize::4                   0                       # Write request sizes (log2)
system.mem_ctrls1.writePktSize::5                   0                       # Write request sizes (log2)
system.mem_ctrls1.writePktSize::6              201799                       # Write request sizes (log2)
system.mem_ctrls1.rdQLenPdf::0                 171366                       # What read queue length does an incoming req see
system.mem_ctrls1.rdQLenPdf::1                   2028                       # What read queue length does an incoming req see
system.mem_ctrls1.rdQLenPdf::2                   1653                       # What read queue length does an incoming req see
system.mem_ctrls1.rdQLenPdf::3                   1758                       # What read queue length does an incoming req see
system.mem_ctrls1.rdQLenPdf::4                   1961                       # What read queue length does an incoming req see
system.mem_ctrls1.rdQLenPdf::5                   2033                       # What read queue length does an incoming req see
system.mem_ctrls1.rdQLenPdf::6                   2105                       # What read queue length does an incoming req see
system.mem_ctrls1.rdQLenPdf::7                   2215                       # What read queue length does an incoming req see
system.mem_ctrls1.rdQLenPdf::8                   2319                       # What read queue length does an incoming req see
system.mem_ctrls1.rdQLenPdf::9                   2396                       # What read queue length does an incoming req see
system.mem_ctrls1.rdQLenPdf::10                  2329                       # What read queue length does an incoming req see
system.mem_ctrls1.rdQLenPdf::11                  2362                       # What read queue length does an incoming req see
system.mem_ctrls1.rdQLenPdf::12                  2360                       # What read queue length does an incoming req see
system.mem_ctrls1.rdQLenPdf::13                  2239                       # What read queue length does an incoming req see
system.mem_ctrls1.rdQLenPdf::14                  2302                       # What read queue length does an incoming req see
system.mem_ctrls1.rdQLenPdf::15                  2235                       # What read queue length does an incoming req see
system.mem_ctrls1.rdQLenPdf::16                  2253                       # What read queue length does an incoming req see
system.mem_ctrls1.rdQLenPdf::17                  2213                       # What read queue length does an incoming req see
system.mem_ctrls1.rdQLenPdf::18                  2216                       # What read queue length does an incoming req see
system.mem_ctrls1.rdQLenPdf::19                  2173                       # What read queue length does an incoming req see
system.mem_ctrls1.rdQLenPdf::20                  2090                       # What read queue length does an incoming req see
system.mem_ctrls1.rdQLenPdf::21                  2070                       # What read queue length does an incoming req see
system.mem_ctrls1.rdQLenPdf::22                  1891                       # What read queue length does an incoming req see
system.mem_ctrls1.rdQLenPdf::23                  1869                       # What read queue length does an incoming req see
system.mem_ctrls1.rdQLenPdf::24                  1891                       # What read queue length does an incoming req see
system.mem_ctrls1.rdQLenPdf::25                  1825                       # What read queue length does an incoming req see
system.mem_ctrls1.rdQLenPdf::26                  1776                       # What read queue length does an incoming req see
system.mem_ctrls1.rdQLenPdf::27                  1757                       # What read queue length does an incoming req see
system.mem_ctrls1.rdQLenPdf::28                  1759                       # What read queue length does an incoming req see
system.mem_ctrls1.rdQLenPdf::29                  1804                       # What read queue length does an incoming req see
system.mem_ctrls1.rdQLenPdf::30                  1813                       # What read queue length does an incoming req see
system.mem_ctrls1.rdQLenPdf::31                 92137                       # What read queue length does an incoming req see
system.mem_ctrls1.wrQLenPdf::0                  35936                       # What write queue length does an incoming req see
system.mem_ctrls1.wrQLenPdf::1                  36695                       # What write queue length does an incoming req see
system.mem_ctrls1.wrQLenPdf::2                  37009                       # What write queue length does an incoming req see
system.mem_ctrls1.wrQLenPdf::3                  37297                       # What write queue length does an incoming req see
system.mem_ctrls1.wrQLenPdf::4                  37530                       # What write queue length does an incoming req see
system.mem_ctrls1.wrQLenPdf::5                   5307                       # What write queue length does an incoming req see
system.mem_ctrls1.wrQLenPdf::6                   5804                       # What write queue length does an incoming req see
system.mem_ctrls1.wrQLenPdf::7                   6221                       # What write queue length does an incoming req see
system.mem_ctrls1.bytesPerActivate::samples       136265                       # Bytes accessed per row activation
system.mem_ctrls1.bytesPerActivate::mean   247.510659                       # Bytes accessed per row activation
system.mem_ctrls1.bytesPerActivate::gmean   194.532571                       # Bytes accessed per row activation
system.mem_ctrls1.bytesPerActivate::stdev   175.624621                       # Bytes accessed per row activation
system.mem_ctrls1.bytesPerActivate::0-127        28925     21.23%     21.23% # Bytes accessed per row activation
system.mem_ctrls1.bytesPerActivate::128-255        35592     26.12%     47.35% # Bytes accessed per row activation
system.mem_ctrls1.bytesPerActivate::256-383        54797     40.21%     87.56% # Bytes accessed per row activation
system.mem_ctrls1.bytesPerActivate::384-511         6228      4.57%     92.13% # Bytes accessed per row activation
system.mem_ctrls1.bytesPerActivate::512-639         4815      3.53%     95.66% # Bytes accessed per row activation
system.mem_ctrls1.bytesPerActivate::640-767         2156      1.58%     97.25% # Bytes accessed per row activation
system.mem_ctrls1.bytesPerActivate::768-895         1134      0.83%     98.08% # Bytes accessed per row activation
system.mem_ctrls1.bytesPerActivate::896-1023          921      0.68%     98.75% # Bytes accessed per row activation
system.mem_ctrls1.bytesPerActivate::1024-1151         1697      1.25%    100.00% # Bytes accessed per row activation
system.mem_ctrls1.bytesPerActivate::total       136265                       # Bytes accessed per row activation
system.mem_ctrls1.rdPerTurnAround::samples        36175                       # Reads before turning the bus around for writes
system.mem_ctrls1.rdPerTurnAround::mean      8.989551                       # Reads before turning the bus around for writes
system.mem_ctrls1.rdPerTurnAround::stdev    20.610667                       # Reads before turning the bus around for writes
system.mem_ctrls1.rdPerTurnAround::0-127        36158     99.95%     99.95% # Reads before turning the bus around for writes
system.mem_ctrls1.rdPerTurnAround::128-255           15      0.04%     99.99% # Reads before turning the bus around for writes
system.mem_ctrls1.rdPerTurnAround::1152-1279            1      0.00%    100.00% # Reads before turning the bus around for writes
system.mem_ctrls1.rdPerTurnAround::2816-2943            1      0.00%    100.00% # Reads before turning the bus around for writes
system.mem_ctrls1.rdPerTurnAround::total        36175                       # Reads before turning the bus around for writes
system.mem_ctrls1.wrPerTurnAround::samples        36175                       # Writes before turning the bus around for reads
system.mem_ctrls1.wrPerTurnAround::mean      5.578411                       # Writes before turning the bus around for reads
system.mem_ctrls1.wrPerTurnAround::gmean     5.390981                       # Writes before turning the bus around for reads
system.mem_ctrls1.wrPerTurnAround::stdev     1.890221                       # Writes before turning the bus around for reads
system.mem_ctrls1.wrPerTurnAround::4-7          32872     90.87%     90.87% # Writes before turning the bus around for reads
system.mem_ctrls1.wrPerTurnAround::8-11          2230      6.16%     97.03% # Writes before turning the bus around for reads
system.mem_ctrls1.wrPerTurnAround::12-15          660      1.82%     98.86% # Writes before turning the bus around for reads
system.mem_ctrls1.wrPerTurnAround::16-19          413      1.14%    100.00% # Writes before turning the bus around for reads
system.mem_ctrls1.wrPerTurnAround::total        36175                       # Writes before turning the bus around for reads
system.mem_ctrls1.totQLat                 30909543017                       # Total ticks spent queuing
system.mem_ctrls1.totMemAccLat            37007005517                       # Total ticks spent from burst creation until serviced by the DRAM
system.mem_ctrls1.totBusLat                1625990000                       # Total ticks spent in databus transfers
system.mem_ctrls1.avgQLat                    95048.38                       # Average queueing delay per DRAM burst
system.mem_ctrls1.avgBusLat                   5000.00                       # Average bus latency per DRAM burst
system.mem_ctrls1.avgMemAccLat              113798.38                       # Average memory access latency per DRAM burst
system.mem_ctrls1.avgRdBW                      159.22                       # Average DRAM read bandwidth in MiByte/s
system.mem_ctrls1.avgWrBW                       98.81                       # Average achieved write bandwidth in MiByte/s
system.mem_ctrls1.avgRdBWSys                   159.23                       # Average system read bandwidth in MiByte/s
system.mem_ctrls1.avgWrBWSys                    98.81                       # Average system write bandwidth in MiByte/s
system.mem_ctrls1.peakBW                     12800.00                       # Theoretical peak bandwidth in MiByte/s
system.mem_ctrls1.busUtil                        2.02                       # Data bus utilization in percentage
system.mem_ctrls1.busUtilRead                    1.24                       # Data bus utilization in percentage for reads
system.mem_ctrls1.busUtilWrite                   0.77                       # Data bus utilization in percentage for writes
system.mem_ctrls1.avgRdQLen                      1.25                       # Average read queue length when enqueuing
system.mem_ctrls1.avgWrQLen                      2.98                       # Average write queue length when enqueuing
system.mem_ctrls1.readRowHits                  249586                       # Number of row buffer hits during reads
system.mem_ctrls1.writeRowHits                 141139                       # Number of row buffer hits during writes
system.mem_ctrls1.readRowHitRate                76.75                       # Row buffer hit rate for reads
system.mem_ctrls1.writeRowHitRate               69.94                       # Row buffer hit rate for writes
system.mem_ctrls1.avgGap                    248026.95                       # Average gap between requests
system.mem_ctrls1.pageHitRate                   74.14                       # Row buffer hit rate, read and write combined
system.mem_ctrls1.memoryStateTime::IDLE   28548970000                       # Time in different power states
system.mem_ctrls1.memoryStateTime::REF     4364620000                       # Time in different power states
system.mem_ctrls1.memoryStateTime::PRE_PDN            0                       # Time in different power states
system.mem_ctrls1.memoryStateTime::ACT    97794462500                       # Time in different power states
system.mem_ctrls1.memoryStateTime::ACT_PDN            0                       # Time in different power states
system.mem_ctrls1.actEnergy::0              521919720                       # Energy for activate commands per rank (pJ)
system.mem_ctrls1.actEnergy::1              508168080                       # Energy for activate commands per rank (pJ)
system.mem_ctrls1.preEnergy::0              284777625                       # Energy for precharge commands per rank (pJ)
system.mem_ctrls1.preEnergy::1              277274250                       # Energy for precharge commands per rank (pJ)
system.mem_ctrls1.readEnergy::0            1276719600                       # Energy for read commands per rank (pJ)
system.mem_ctrls1.readEnergy::1            1259489400                       # Energy for read commands per rank (pJ)
system.mem_ctrls1.writeEnergy::0            656812800                       # Energy for write commands per rank (pJ)
system.mem_ctrls1.writeEnergy::1            650779920                       # Energy for write commands per rank (pJ)
system.mem_ctrls1.refreshEnergy::0         8537196720                       # Energy for refresh commands per rank (pJ)
system.mem_ctrls1.refreshEnergy::1         8537196720                       # Energy for refresh commands per rank (pJ)
system.mem_ctrls1.actBackEnergy::0        49148497665                       # Energy for active background per rank (pJ)
system.mem_ctrls1.actBackEnergy::1        48208877460                       # Energy for active background per rank (pJ)
system.mem_ctrls1.preBackEnergy::0        35312106000                       # Energy for precharge background per rank (pJ)
system.mem_ctrls1.preBackEnergy::1        36136334250                       # Energy for precharge background per rank (pJ)
system.mem_ctrls1.totalEnergy::0          95738030130                       # Total energy per rank (pJ)
system.mem_ctrls1.totalEnergy::1          95578120080                       # Total energy per rank (pJ)
system.mem_ctrls1.averagePower::0          732.457093                       # Core power per rank (mW)
system.mem_ctrls1.averagePower::1          731.233679                       # Core power per rank (mW)
system.mem_ctrls2.bytes_read::ruby.dir_cntrl2     20813184                       # Number of bytes read from this memory
system.mem_ctrls2.bytes_read::total          20813184                       # Number of bytes read from this memory
system.mem_ctrls2.bytes_written::ruby.dir_cntrl2     12915648                       # Number of bytes written to this memory
system.mem_ctrls2.bytes_written::total       12915648                       # Number of bytes written to this memory
system.mem_ctrls2.num_reads::ruby.dir_cntrl2       325206                       # Number of read requests responded to by this memory
system.mem_ctrls2.num_reads::total             325206                       # Number of read requests responded to by this memory
system.mem_ctrls2.num_writes::ruby.dir_cntrl2       201807                       # Number of write requests responded to by this memory
system.mem_ctrls2.num_writes::total            201807                       # Number of write requests responded to by this memory
system.mem_ctrls2.bw_read::ruby.dir_cntrl2    159228064                       # Total read bandwidth from this memory (bytes/s)
system.mem_ctrls2.bw_read::total            159228064                       # Total read bandwidth from this memory (bytes/s)
system.mem_ctrls2.bw_write::ruby.dir_cntrl2     98809179                       # Write bandwidth from this memory (bytes/s)
system.mem_ctrls2.bw_write::total            98809179                       # Write bandwidth from this memory (bytes/s)
system.mem_ctrls2.bw_total::ruby.dir_cntrl2    258037243                       # Total bandwidth to/from this memory (bytes/s)
system.mem_ctrls2.bw_total::total           258037243                       # Total bandwidth to/from this memory (bytes/s)
system.mem_ctrls2.readReqs                     325206                       # Number of read requests accepted
system.mem_ctrls2.writeReqs                    201807                       # Number of write requests accepted
system.mem_ctrls2.readBursts                   325206                       # Number of DRAM read bursts, including those serviced by the write queue
system.mem_ctrls2.writeBursts                  201807                       # Number of DRAM write bursts, including those merged in the write queue
system.mem_ctrls2.bytesReadDRAM              20812224                       # Total number of bytes read from DRAM
system.mem_ctrls2.bytesReadWrQ                    960                       # Total number of bytes read from write queue
system.mem_ctrls2.bytesWritten               12915648                       # Total number of bytes written to DRAM
system.mem_ctrls2.bytesReadSys               20813184                       # Total read bytes from the system interface side
system.mem_ctrls2.bytesWrittenSys            12915648                       # Total written bytes from the system interface side
system.mem_ctrls2.servicedByWrQ                    15                       # Number of DRAM read bursts serviced by the write queue
system.mem_ctrls2.mergedWrBursts                    0                       # Number of DRAM write bursts merged with an existing one
system.mem_ctrls2.neitherReadNorWriteReqs            0                       # Number of requests that are neither read nor write
system.mem_ctrls2.perBankRdBursts::0            20056                       # Per bank write bursts
system.mem_ctrls2.perBankRdBursts::1            20680                       # Per bank write bursts
system.mem_ctrls2.perBankRdBursts::2            20244                       # Per bank write bursts
system.mem_ctrls2.perBankRdBursts::3            20759                       # Per bank write bursts
system.mem_ctrls2.perBankRdBursts::4            20409                       # Per bank write bursts
system.mem_ctrls2.perBankRdBursts::5            20568                       # Per bank write bursts
system.mem_ctrls2.perBankRdBursts::6            20461                       # Per bank write bursts
system.mem_ctrls2.perBankRdBursts::7            20530                       # Per bank write bursts
system.mem_ctrls2.perBankRdBursts::8            20154                       # Per bank write bursts
system.mem_ctrls2.perBankRdBursts::9            20392                       # Per bank write bursts
system.mem_ctrls2.perBankRdBursts::10           20164                       # Per bank write bursts
system.mem_ctrls2.perBankRdBursts::11           20587                       # Per bank write bursts
system.mem_ctrls2.perBankRdBursts::12           20050                       # Per bank write bursts
system.mem_ctrls2.perBankRdBursts::13           19866                       # Per bank write bursts
system.mem_ctrls2.perBankRdBursts::14           20102                       # Per bank write bursts
system.mem_ctrls2.perBankRdBursts::15           20169                       # Per bank write bursts
system.mem_ctrls2.perBankWrBursts::0            12661                       # Per bank write bursts
system.mem_ctrls2.perBankWrBursts::1            12628                       # Per bank write bursts
system.mem_ctrls2.perBankWrBursts::2            12550                       # Per bank write bursts
system.mem_ctrls2.perBankWrBursts::3            12764                       # Per bank write bursts
system.mem_ctrls2.perBankWrBursts::4            12610                       # Per bank write bursts
system.mem_ctrls2.perBankWrBursts::5            12696                       # Per bank write bursts
system.mem_ctrls2.perBankWrBursts::6            12608                       # Per bank write bursts
system.mem_ctrls2.perBankWrBursts::7            12832                       # Per bank write bursts
system.mem_ctrls2.perBankWrBursts::8            12518                       # Per bank write bursts
system.mem_ctrls2.perBankWrBursts::9            12729                       # Per bank write bursts
system.mem_ctrls2.perBankWrBursts::10           12534                       # Per bank write bursts
system.mem_ctrls2.perBankWrBursts::11           12515                       # Per bank write bursts
system.mem_ctrls2.perBankWrBursts::12           12470                       # Per bank write bursts
system.mem_ctrls2.perBankWrBursts::13           12443                       # Per bank write bursts
system.mem_ctrls2.perBankWrBursts::14           12700                       # Per bank write bursts
system.mem_ctrls2.perBankWrBursts::15           12549                       # Per bank write bursts
system.mem_ctrls2.numRdRetry                    90252                       # Number of times read queue was full causing retry
system.mem_ctrls2.numWrRetry                     2816                       # Number of times write queue was full causing retry
system.mem_ctrls2.totGap                 130712948000                       # Total gap between requests
system.mem_ctrls2.readPktSize::0                    0                       # Read request sizes (log2)
system.mem_ctrls2.readPktSize::1                    0                       # Read request sizes (log2)
system.mem_ctrls2.readPktSize::2                    0                       # Read request sizes (log2)
system.mem_ctrls2.readPktSize::3                    0                       # Read request sizes (log2)
system.mem_ctrls2.readPktSize::4                    0                       # Read request sizes (log2)
system.mem_ctrls2.readPktSize::5                    0                       # Read request sizes (log2)
system.mem_ctrls2.readPktSize::6               325206                       # Read request sizes (log2)
system.mem_ctrls2.writePktSize::0                   0                       # Write request sizes (log2)
system.mem_ctrls2.writePktSize::1                   0                       # Write request sizes (log2)
system.mem_ctrls2.writePktSize::2                   0                       # Write request sizes (log2)
system.mem_ctrls2.writePktSize::3                   0                       # Write request sizes (log2)
system.mem_ctrls2.writePktSize::4                   0                       # Write request sizes (log2)
system.mem_ctrls2.writePktSize::5                   0                       # Write request sizes (log2)
system.mem_ctrls2.writePktSize::6              201807                       # Write request sizes (log2)
system.mem_ctrls2.rdQLenPdf::0                 171534                       # What read queue length does an incoming req see
system.mem_ctrls2.rdQLenPdf::1                   1848                       # What read queue length does an incoming req see
system.mem_ctrls2.rdQLenPdf::2                   1623                       # What read queue length does an incoming req see
system.mem_ctrls2.rdQLenPdf::3                   1699                       # What read queue length does an incoming req see
system.mem_ctrls2.rdQLenPdf::4                   1851                       # What read queue length does an incoming req see
system.mem_ctrls2.rdQLenPdf::5                   1977                       # What read queue length does an incoming req see
system.mem_ctrls2.rdQLenPdf::6                   2083                       # What read queue length does an incoming req see
system.mem_ctrls2.rdQLenPdf::7                   2216                       # What read queue length does an incoming req see
system.mem_ctrls2.rdQLenPdf::8                   2271                       # What read queue length does an incoming req see
system.mem_ctrls2.rdQLenPdf::9                   2279                       # What read queue length does an incoming req see
system.mem_ctrls2.rdQLenPdf::10                  2358                       # What read queue length does an incoming req see
system.mem_ctrls2.rdQLenPdf::11                  2276                       # What read queue length does an incoming req see
system.mem_ctrls2.rdQLenPdf::12                  2277                       # What read queue length does an incoming req see
system.mem_ctrls2.rdQLenPdf::13                  2245                       # What read queue length does an incoming req see
system.mem_ctrls2.rdQLenPdf::14                  2190                       # What read queue length does an incoming req see
system.mem_ctrls2.rdQLenPdf::15                  2127                       # What read queue length does an incoming req see
system.mem_ctrls2.rdQLenPdf::16                  2190                       # What read queue length does an incoming req see
system.mem_ctrls2.rdQLenPdf::17                  2150                       # What read queue length does an incoming req see
system.mem_ctrls2.rdQLenPdf::18                  2192                       # What read queue length does an incoming req see
system.mem_ctrls2.rdQLenPdf::19                  2151                       # What read queue length does an incoming req see
system.mem_ctrls2.rdQLenPdf::20                  2187                       # What read queue length does an incoming req see
system.mem_ctrls2.rdQLenPdf::21                  2030                       # What read queue length does an incoming req see
system.mem_ctrls2.rdQLenPdf::22                  2068                       # What read queue length does an incoming req see
system.mem_ctrls2.rdQLenPdf::23                  1973                       # What read queue length does an incoming req see
system.mem_ctrls2.rdQLenPdf::24                  1870                       # What read queue length does an incoming req see
system.mem_ctrls2.rdQLenPdf::25                  1915                       # What read queue length does an incoming req see
system.mem_ctrls2.rdQLenPdf::26                  1920                       # What read queue length does an incoming req see
system.mem_ctrls2.rdQLenPdf::27                  1774                       # What read queue length does an incoming req see
system.mem_ctrls2.rdQLenPdf::28                  1797                       # What read queue length does an incoming req see
system.mem_ctrls2.rdQLenPdf::29                  1754                       # What read queue length does an incoming req see
system.mem_ctrls2.rdQLenPdf::30                  1921                       # What read queue length does an incoming req see
system.mem_ctrls2.rdQLenPdf::31                 92445                       # What read queue length does an incoming req see
system.mem_ctrls2.wrQLenPdf::0                  35911                       # What write queue length does an incoming req see
system.mem_ctrls2.wrQLenPdf::1                  36702                       # What write queue length does an incoming req see
system.mem_ctrls2.wrQLenPdf::2                  37074                       # What write queue length does an incoming req see
system.mem_ctrls2.wrQLenPdf::3                  37250                       # What write queue length does an incoming req see
system.mem_ctrls2.wrQLenPdf::4                  37535                       # What write queue length does an incoming req see
system.mem_ctrls2.wrQLenPdf::5                   5364                       # What write queue length does an incoming req see
system.mem_ctrls2.wrQLenPdf::6                   5786                       # What write queue length does an incoming req see
system.mem_ctrls2.wrQLenPdf::7                   6185                       # What write queue length does an incoming req see
system.mem_ctrls2.bytesPerActivate::samples       135942                       # Bytes accessed per row activation
system.mem_ctrls2.bytesPerActivate::mean   248.096865                       # Bytes accessed per row activation
system.mem_ctrls2.bytesPerActivate::gmean   195.082116                       # Bytes accessed per row activation
system.mem_ctrls2.bytesPerActivate::stdev   175.281407                       # Bytes accessed per row activation
system.mem_ctrls2.bytesPerActivate::0-127        28980     21.32%     21.32% # Bytes accessed per row activation
system.mem_ctrls2.bytesPerActivate::128-255        34636     25.48%     46.80% # Bytes accessed per row activation
system.mem_ctrls2.bytesPerActivate::256-383        55446     40.79%     87.58% # Bytes accessed per row activation
system.mem_ctrls2.bytesPerActivate::384-511         6130      4.51%     92.09% # Bytes accessed per row activation
system.mem_ctrls2.bytesPerActivate::512-639         4915      3.62%     95.71% # Bytes accessed per row activation
system.mem_ctrls2.bytesPerActivate::640-767         2125      1.56%     97.27% # Bytes accessed per row activation
system.mem_ctrls2.bytesPerActivate::768-895         1165      0.86%     98.13% # Bytes accessed per row activation
system.mem_ctrls2.bytesPerActivate::896-1023          821      0.60%     98.73% # Bytes accessed per row activation
system.mem_ctrls2.bytesPerActivate::1024-1151         1724      1.27%    100.00% # Bytes accessed per row activation
system.mem_ctrls2.bytesPerActivate::total       135942                       # Bytes accessed per row activation
system.mem_ctrls2.rdPerTurnAround::samples        36168                       # Reads before turning the bus around for writes
system.mem_ctrls2.rdPerTurnAround::mean      8.991097                       # Reads before turning the bus around for writes
system.mem_ctrls2.rdPerTurnAround::stdev    20.671925                       # Reads before turning the bus around for writes
system.mem_ctrls2.rdPerTurnAround::0-127        36151     99.95%     99.95% # Reads before turning the bus around for writes
system.mem_ctrls2.rdPerTurnAround::128-255           15      0.04%     99.99% # Reads before turning the bus around for writes
system.mem_ctrls2.rdPerTurnAround::1152-1279            1      0.00%    100.00% # Reads before turning the bus around for writes
system.mem_ctrls2.rdPerTurnAround::2816-2943            1      0.00%    100.00% # Reads before turning the bus around for writes
system.mem_ctrls2.rdPerTurnAround::total        36168                       # Reads before turning the bus around for writes
system.mem_ctrls2.wrPerTurnAround::samples        36168                       # Writes before turning the bus around for reads
system.mem_ctrls2.wrPerTurnAround::mean      5.579711                       # Writes before turning the bus around for reads
system.mem_ctrls2.wrPerTurnAround::gmean     5.391702                       # Writes before turning the bus around for reads
system.mem_ctrls2.wrPerTurnAround::stdev     1.891755                       # Writes before turning the bus around for reads
system.mem_ctrls2.wrPerTurnAround::4-7          32823     90.75%     90.75% # Writes before turning the bus around for reads
system.mem_ctrls2.wrPerTurnAround::8-11          2240      6.19%     96.94% # Writes before turning the bus around for reads
system.mem_ctrls2.wrPerTurnAround::12-15          695      1.92%     98.87% # Writes before turning the bus around for reads
system.mem_ctrls2.wrPerTurnAround::16-19          410      1.13%    100.00% # Writes before turning the bus around for reads
system.mem_ctrls2.wrPerTurnAround::total        36168                       # Writes before turning the bus around for reads
system.mem_ctrls2.totQLat                 30997830277                       # Total ticks spent queuing
system.mem_ctrls2.totMemAccLat            37095161527                       # Total ticks spent from burst creation until serviced by the DRAM
system.mem_ctrls2.totBusLat                1625955000                       # Total ticks spent in databus transfers
system.mem_ctrls2.avgQLat                    95321.92                       # Average queueing delay per DRAM burst
system.mem_ctrls2.avgBusLat                   5000.00                       # Average bus latency per DRAM burst
system.mem_ctrls2.avgMemAccLat              114071.92                       # Average memory access latency per DRAM burst
system.mem_ctrls2.avgRdBW                      159.22                       # Average DRAM read bandwidth in MiByte/s
system.mem_ctrls2.avgWrBW                       98.81                       # Average achieved write bandwidth in MiByte/s
system.mem_ctrls2.avgRdBWSys                   159.23                       # Average system read bandwidth in MiByte/s
system.mem_ctrls2.avgWrBWSys                    98.81                       # Average system write bandwidth in MiByte/s
system.mem_ctrls2.peakBW                     12800.00                       # Theoretical peak bandwidth in MiByte/s
system.mem_ctrls2.busUtil                        2.02                       # Data bus utilization in percentage
system.mem_ctrls2.busUtilRead                    1.24                       # Data bus utilization in percentage for reads
system.mem_ctrls2.busUtilWrite                   0.77                       # Data bus utilization in percentage for writes
system.mem_ctrls2.avgRdQLen                      1.25                       # Average read queue length when enqueuing
system.mem_ctrls2.avgWrQLen                      2.95                       # Average write queue length when enqueuing
system.mem_ctrls2.readRowHits                  249500                       # Number of row buffer hits during reads
system.mem_ctrls2.writeRowHits                 141548                       # Number of row buffer hits during writes
system.mem_ctrls2.readRowHitRate                76.72                       # Row buffer hit rate for reads
system.mem_ctrls2.writeRowHitRate               70.14                       # Row buffer hit rate for writes
system.mem_ctrls2.avgGap                    248026.04                       # Average gap between requests
system.mem_ctrls2.pageHitRate                   74.20                       # Row buffer hit rate, read and write combined
system.mem_ctrls2.memoryStateTime::IDLE   28403544000                       # Time in different power states
system.mem_ctrls2.memoryStateTime::REF     4364620000                       # Time in different power states
system.mem_ctrls2.memoryStateTime::PRE_PDN            0                       # Time in different power states
system.mem_ctrls2.memoryStateTime::ACT    97939888500                       # Time in different power states
system.mem_ctrls2.memoryStateTime::ACT_PDN            0                       # Time in different power states
system.mem_ctrls2.actEnergy::0              521473680                       # Energy for activate commands per rank (pJ)
system.mem_ctrls2.actEnergy::1              506194920                       # Energy for activate commands per rank (pJ)
system.mem_ctrls2.preEnergy::0              284534250                       # Energy for precharge commands per rank (pJ)
system.mem_ctrls2.preEnergy::1              276197625                       # Energy for precharge commands per rank (pJ)
system.mem_ctrls2.readEnergy::0            1276626000                       # Energy for read commands per rank (pJ)
system.mem_ctrls2.readEnergy::1            1259528400                       # Energy for read commands per rank (pJ)
system.mem_ctrls2.writeEnergy::0            656741520                       # Energy for write commands per rank (pJ)
system.mem_ctrls2.writeEnergy::1            650903040                       # Energy for write commands per rank (pJ)
system.mem_ctrls2.refreshEnergy::0         8537196720                       # Energy for refresh commands per rank (pJ)
system.mem_ctrls2.refreshEnergy::1         8537196720                       # Energy for refresh commands per rank (pJ)
system.mem_ctrls2.actBackEnergy::0        48879989190                       # Energy for active background per rank (pJ)
system.mem_ctrls2.actBackEnergy::1        47952564705                       # Energy for active background per rank (pJ)
system.mem_ctrls2.preBackEnergy::0        35547639750                       # Energy for precharge background per rank (pJ)
system.mem_ctrls2.preBackEnergy::1        36361170000                       # Energy for precharge background per rank (pJ)
system.mem_ctrls2.totalEnergy::0          95704201110                       # Total energy per rank (pJ)
system.mem_ctrls2.totalEnergy::1          95543755410                       # Total energy per rank (pJ)
system.mem_ctrls2.averagePower::0          732.198280                       # Core power per rank (mW)
system.mem_ctrls2.averagePower::1          730.970768                       # Core power per rank (mW)
system.mem_ctrls3.bytes_read::ruby.dir_cntrl3     20791360                       # Number of bytes read from this memory
system.mem_ctrls3.bytes_read::total          20791360                       # Number of bytes read from this memory
system.mem_ctrls3.bytes_written::ruby.dir_cntrl3     12914496                       # Number of bytes written to this memory
system.mem_ctrls3.bytes_written::total       12914496                       # Number of bytes written to this memory
system.mem_ctrls3.num_reads::ruby.dir_cntrl3       324865                       # Number of read requests responded to by this memory
system.mem_ctrls3.num_reads::total             324865                       # Number of read requests responded to by this memory
system.mem_ctrls3.num_writes::ruby.dir_cntrl3       201789                       # Number of write requests responded to by this memory
system.mem_ctrls3.num_writes::total            201789                       # Number of write requests responded to by this memory
system.mem_ctrls3.bw_read::ruby.dir_cntrl3    159061103                       # Total read bandwidth from this memory (bytes/s)
system.mem_ctrls3.bw_read::total            159061103                       # Total read bandwidth from this memory (bytes/s)
system.mem_ctrls3.bw_write::ruby.dir_cntrl3     98800366                       # Write bandwidth from this memory (bytes/s)
system.mem_ctrls3.bw_write::total            98800366                       # Write bandwidth from this memory (bytes/s)
system.mem_ctrls3.bw_total::ruby.dir_cntrl3    257861469                       # Total bandwidth to/from this memory (bytes/s)
system.mem_ctrls3.bw_total::total           257861469                       # Total bandwidth to/from this memory (bytes/s)
system.mem_ctrls3.readReqs                     324865                       # Number of read requests accepted
system.mem_ctrls3.writeReqs                    201789                       # Number of write requests accepted
system.mem_ctrls3.readBursts                   324865                       # Number of DRAM read bursts, including those serviced by the write queue
system.mem_ctrls3.writeBursts                  201789                       # Number of DRAM write bursts, including those merged in the write queue
system.mem_ctrls3.bytesReadDRAM              20790528                       # Total number of bytes read from DRAM
system.mem_ctrls3.bytesReadWrQ                    832                       # Total number of bytes read from write queue
system.mem_ctrls3.bytesWritten               12914432                       # Total number of bytes written to DRAM
system.mem_ctrls3.bytesReadSys               20791360                       # Total read bytes from the system interface side
system.mem_ctrls3.bytesWrittenSys            12914496                       # Total written bytes from the system interface side
system.mem_ctrls3.servicedByWrQ                    13                       # Number of DRAM read bursts serviced by the write queue
system.mem_ctrls3.mergedWrBursts                    0                       # Number of DRAM write bursts merged with an existing one
system.mem_ctrls3.neitherReadNorWriteReqs            0                       # Number of requests that are neither read nor write
system.mem_ctrls3.perBankRdBursts::0            20050                       # Per bank write bursts
system.mem_ctrls3.perBankRdBursts::1            20650                       # Per bank write bursts
system.mem_ctrls3.perBankRdBursts::2            20160                       # Per bank write bursts
system.mem_ctrls3.perBankRdBursts::3            20729                       # Per bank write bursts
system.mem_ctrls3.perBankRdBursts::4            20340                       # Per bank write bursts
system.mem_ctrls3.perBankRdBursts::5            20557                       # Per bank write bursts
system.mem_ctrls3.perBankRdBursts::6            20474                       # Per bank write bursts
system.mem_ctrls3.perBankRdBursts::7            20509                       # Per bank write bursts
system.mem_ctrls3.perBankRdBursts::8            20145                       # Per bank write bursts
system.mem_ctrls3.perBankRdBursts::9            20381                       # Per bank write bursts
system.mem_ctrls3.perBankRdBursts::10           20201                       # Per bank write bursts
system.mem_ctrls3.perBankRdBursts::11           20539                       # Per bank write bursts
system.mem_ctrls3.perBankRdBursts::12           19991                       # Per bank write bursts
system.mem_ctrls3.perBankRdBursts::13           19859                       # Per bank write bursts
system.mem_ctrls3.perBankRdBursts::14           20127                       # Per bank write bursts
system.mem_ctrls3.perBankRdBursts::15           20140                       # Per bank write bursts
system.mem_ctrls3.perBankWrBursts::0            12667                       # Per bank write bursts
system.mem_ctrls3.perBankWrBursts::1            12618                       # Per bank write bursts
system.mem_ctrls3.perBankWrBursts::2            12558                       # Per bank write bursts
system.mem_ctrls3.perBankWrBursts::3            12755                       # Per bank write bursts
system.mem_ctrls3.perBankWrBursts::4            12610                       # Per bank write bursts
system.mem_ctrls3.perBankWrBursts::5            12701                       # Per bank write bursts
system.mem_ctrls3.perBankWrBursts::6            12605                       # Per bank write bursts
system.mem_ctrls3.perBankWrBursts::7            12825                       # Per bank write bursts
system.mem_ctrls3.perBankWrBursts::8            12515                       # Per bank write bursts
system.mem_ctrls3.perBankWrBursts::9            12732                       # Per bank write bursts
system.mem_ctrls3.perBankWrBursts::10           12534                       # Per bank write bursts
system.mem_ctrls3.perBankWrBursts::11           12520                       # Per bank write bursts
system.mem_ctrls3.perBankWrBursts::12           12464                       # Per bank write bursts
system.mem_ctrls3.perBankWrBursts::13           12447                       # Per bank write bursts
system.mem_ctrls3.perBankWrBursts::14           12706                       # Per bank write bursts
system.mem_ctrls3.perBankWrBursts::15           12531                       # Per bank write bursts
system.mem_ctrls3.numRdRetry                    88802                       # Number of times read queue was full causing retry
system.mem_ctrls3.numWrRetry                     2919                       # Number of times write queue was full causing retry
system.mem_ctrls3.totGap                 130712221000                       # Total gap between requests
system.mem_ctrls3.readPktSize::0                    0                       # Read request sizes (log2)
system.mem_ctrls3.readPktSize::1                    0                       # Read request sizes (log2)
system.mem_ctrls3.readPktSize::2                    0                       # Read request sizes (log2)
system.mem_ctrls3.readPktSize::3                    0                       # Read request sizes (log2)
system.mem_ctrls3.readPktSize::4                    0                       # Read request sizes (log2)
system.mem_ctrls3.readPktSize::5                    0                       # Read request sizes (log2)
system.mem_ctrls3.readPktSize::6               324865                       # Read request sizes (log2)
system.mem_ctrls3.writePktSize::0                   0                       # Write request sizes (log2)
system.mem_ctrls3.writePktSize::1                   0                       # Write request sizes (log2)
system.mem_ctrls3.writePktSize::2                   0                       # Write request sizes (log2)
system.mem_ctrls3.writePktSize::3                   0                       # Write request sizes (log2)
system.mem_ctrls3.writePktSize::4                   0                       # Write request sizes (log2)
system.mem_ctrls3.writePktSize::5                   0                       # Write request sizes (log2)
system.mem_ctrls3.writePktSize::6              201789                       # Write request sizes (log2)
system.mem_ctrls3.rdQLenPdf::0                 171151                       # What read queue length does an incoming req see
system.mem_ctrls3.rdQLenPdf::1                   1969                       # What read queue length does an incoming req see
system.mem_ctrls3.rdQLenPdf::2                   1642                       # What read queue length does an incoming req see
system.mem_ctrls3.rdQLenPdf::3                   1820                       # What read queue length does an incoming req see
system.mem_ctrls3.rdQLenPdf::4                   1837                       # What read queue length does an incoming req see
system.mem_ctrls3.rdQLenPdf::5                   2041                       # What read queue length does an incoming req see
system.mem_ctrls3.rdQLenPdf::6                   2307                       # What read queue length does an incoming req see
system.mem_ctrls3.rdQLenPdf::7                   2370                       # What read queue length does an incoming req see
system.mem_ctrls3.rdQLenPdf::8                   2456                       # What read queue length does an incoming req see
system.mem_ctrls3.rdQLenPdf::9                   2386                       # What read queue length does an incoming req see
system.mem_ctrls3.rdQLenPdf::10                  2439                       # What read queue length does an incoming req see
system.mem_ctrls3.rdQLenPdf::11                  2440                       # What read queue length does an incoming req see
system.mem_ctrls3.rdQLenPdf::12                  2349                       # What read queue length does an incoming req see
system.mem_ctrls3.rdQLenPdf::13                  2341                       # What read queue length does an incoming req see
system.mem_ctrls3.rdQLenPdf::14                  2230                       # What read queue length does an incoming req see
system.mem_ctrls3.rdQLenPdf::15                  2294                       # What read queue length does an incoming req see
system.mem_ctrls3.rdQLenPdf::16                  2183                       # What read queue length does an incoming req see
system.mem_ctrls3.rdQLenPdf::17                  2139                       # What read queue length does an incoming req see
system.mem_ctrls3.rdQLenPdf::18                  2068                       # What read queue length does an incoming req see
system.mem_ctrls3.rdQLenPdf::19                  2089                       # What read queue length does an incoming req see
system.mem_ctrls3.rdQLenPdf::20                  2084                       # What read queue length does an incoming req see
system.mem_ctrls3.rdQLenPdf::21                  2030                       # What read queue length does an incoming req see
system.mem_ctrls3.rdQLenPdf::22                  1960                       # What read queue length does an incoming req see
system.mem_ctrls3.rdQLenPdf::23                  2010                       # What read queue length does an incoming req see
system.mem_ctrls3.rdQLenPdf::24                  1928                       # What read queue length does an incoming req see
[...]
system.ruby.L2Cache_Controller.S_I.Ack_all::total           32                      
system.ruby.L2Cache_Controller.ISS.Mem_Data |       26086      5.16%      5.16% |       15514      3.07%      8.22% |       15545      3.07%     11.30% |       15498      3.06%     14.36% |       15473      3.06%     17.42% |       15446      3.05%     20.48% |       15458      3.06%     23.53% |       15458      3.06%     26.59% |       15491      3.06%     29.65% |       15507      3.07%     32.72% |       15530      3.07%     35.79% |       15454      3.06%     38.84% |       15470      3.06%     41.90% |       15472      3.06%     44.96% |       15485      3.06%     48.02% |       15447      3.05%     51.08% |       15464      3.06%     54.13% |       15445      3.05%     57.19% |       15473      3.06%     60.25% |       15456      3.06%     63.30% |       15475      3.06%     66.36% |       15481      3.06%     69.42% |       15491      3.06%     72.49% |       15467      3.06%     75.54% |       15481      3.06%     78.60% |       15483      3.06%     81.67% |       15462      3.06%     84.72% |       15443      3.05%     87.78% |       15477      3.06%     90.84% |       15443      3.05%     93.89% |       15445      3.05%     96.94% |       15465      3.06%    100.00%
system.ruby.L2Cache_Controller.ISS.Mem_Data::total       505785                      
system.ruby.L2Cache_Controller.IS.Mem_Data |         503      3.21%      3.21% |         454      2.89%      6.10% |         438      2.79%      8.89% |         449      2.86%     11.75% |         450      2.87%     14.62% |         430      2.74%     17.36% |         473      3.01%     20.38% |         491      3.13%     23.51% |         505      3.22%     26.72% |         446      2.84%     29.57% |         488      3.11%     32.68% |         498      3.17%     35.85% |         551      3.51%     39.36% |         523      3.33%     42.70% |         510      3.25%     45.95% |         492      3.14%     49.08% |         515      3.28%     52.36% |         532      3.39%     55.76% |         529      3.37%     59.13% |         483      3.08%     62.21% |         474      3.02%     65.23% |         523      3.33%     68.56% |         477      3.04%     71.60% |         450      2.87%     74.47% |         518      3.30%     77.77% |         579      3.69%     81.46% |         523      3.33%     84.79% |         478      3.05%     87.84% |         457      2.91%     90.75% |         510      3.25%     94.00% |         487      3.10%     97.11% |         454      2.89%    100.00%
system.ruby.L2Cache_Controller.IS.Mem_Data::total        15690                      
system.ruby.L2Cache_Controller.IM.Mem_Data |       24963      3.16%      3.16% |       24665      3.12%      6.28% |       24674      3.12%      9.41% |       24679      3.12%     12.53% |       24670      3.12%     15.65% |       24674      3.12%     18.78% |       24675      3.12%     21.90% |       24666      3.12%     25.02% |       24681      3.12%     28.15% |       24680      3.12%     31.27% |       24663      3.12%     34.40% |       24687      3.13%     37.52% |       24674      3.12%     40.64% |       24671      3.12%     43.77% |       24669      3.12%     46.89% |       24662      3.12%     50.01% |       24683      3.12%     53.14% |       24680      3.12%     56.26% |       24677      3.12%     59.39% |       24675      3.12%     62.51% |       24688      3.13%     65.63% |       24699      3.13%     68.76% |       24670      3.12%     71.88% |       24674      3.12%     75.01% |       24686      3.13%     78.13% |       24680      3.12%     81.26% |       24683      3.12%     84.38% |       24670      3.12%     87.51% |       24671      3.12%     90.63% |       24672      3.12%     93.75% |       24681      3.12%     96.88% |       24668      3.12%    100.00%
system.ruby.L2Cache_Controller.IM.Mem_Data::total       789910                      
system.ruby.L2Cache_Controller.SS_MB.Exclusive_Unblock |           2      4.17%      4.17% |           4      8.33%     12.50% |           5     10.42%     22.92% |           3      6.25%     29.17% |           0      0.00%     29.17% |           0      0.00%     29.17% |           0      0.00%     29.17% |           0      0.00%     29.17% |           1      2.08%     31.25% |           1      2.08%     33.33% |           0      0.00%     33.33% |           1      2.08%     35.42% |           6     12.50%     47.92% |           0      0.00%     47.92% |           2      4.17%     52.08% |           0      0.00%     52.08% |           0      0.00%     52.08% |           0      0.00%     52.08% |           7     14.58%     66.67% |           5     10.42%     77.08% |           1      2.08%     79.17% |           0      0.00%     79.17% |           0      0.00%     79.17% |           0      0.00%     79.17% |           1      2.08%     81.25% |           1      2.08%     83.33% |           1      2.08%     85.42% |           1      2.08%     87.50% |           5     10.42%     97.92% |           0      0.00%     97.92% |           1      2.08%    100.00% |           0      0.00%    100.00%
system.ruby.L2Cache_Controller.SS_MB.Exclusive_Unblock::total           48                      
system.ruby.L2Cache_Controller.MT_MB.L1_PUTX |           7    100.00%    100.00% |           0      0.00%    100.00% |           0      0.00%    100.00% |           0      0.00%    100.00% |           0      0.00%    100.00% |           0      0.00%    100.00% |           0      0.00%    100.00% |           0      0.00%    100.00% |           0      0.00%    100.00% |           0      0.00%    100.00% |           0      0.00%    100.00% |           0      0.00%    100.00% |           0      0.00%    100.00% |           0      0.00%    100.00% |           0      0.00%    100.00% |           0      0.00%    100.00% |           0      0.00%    100.00% |           0      0.00%    100.00% |           0      0.00%    100.00% |           0      0.00%    100.00% |           0      0.00%    100.00% |           0      0.00%    100.00% |           0      0.00%    100.00% |           0      0.00%    100.00% |           0      0.00%    100.00% |           0      0.00%    100.00% |           0      0.00%    100.00% |           0      0.00%    100.00% |           0      0.00%    100.00% |           0      0.00%    100.00% |           0      0.00%    100.00% |           0      0.00%    100.00%
system.ruby.L2Cache_Controller.MT_MB.L1_PUTX::total            7                      
system.ruby.L2Cache_Controller.MT_MB.Exclusive_Unblock |      171934      9.58%      9.58% |       54319      3.03%     12.60% |       49317      2.75%     15.35% |       53027      2.95%     18.30% |       53546      2.98%     21.29% |       49550      2.76%     24.05% |       46005      2.56%     26.61% |       46016      2.56%     29.17% |       51573      2.87%     32.04% |       49856      2.78%     34.82% |       54109      3.01%     37.83% |       51068      2.84%     40.68% |       48324      2.69%     43.37% |       46948      2.62%     45.99% |       47927      2.67%     48.66% |       46655      2.60%     51.25% |       50613      2.82%     54.07% |       48405      2.70%     56.77% |       49935      2.78%     59.55% |       54055      3.01%     62.56% |       54571      3.04%     65.60% |       63424      3.53%     69.13% |       58044      3.23%     72.37% |       53285      2.97%     75.34% |       53537      2.98%     78.32% |       51489      2.87%     81.19% |       52549      2.93%     84.11% |       52345      2.92%     87.03% |       55541      3.09%     90.12% |       55202      3.07%     93.20% |       63507      3.54%     96.73% |       58631      3.27%    100.00%
system.ruby.L2Cache_Controller.MT_MB.Exclusive_Unblock::total      1795307                      
system.ruby.L2Cache_Controller.MT_IIB.WB_Data |           0      0.00%      0.00% |           0      0.00%      0.00% |           1      7.14%      7.14% |           1      7.14%     14.29% |           1      7.14%     21.43% |           0      0.00%     21.43% |           1      7.14%     28.57% |           0      0.00%     28.57% |           1      7.14%     35.71% |           1      7.14%     42.86% |           1      7.14%     50.00% |           1      7.14%     57.14% |           1      7.14%     64.29% |           0      0.00%     64.29% |           1      7.14%     71.43% |           1      7.14%     78.57% |           1      7.14%     85.71% |           1      7.14%     92.86% |           1      7.14%    100.00% |           0      0.00%    100.00% |           0      0.00%    100.00% |           0      0.00%    100.00% |           0      0.00%    100.00% |           0      0.00%    100.00% |           0      0.00%    100.00% |           0      0.00%    100.00% |           0      0.00%    100.00% |           0      0.00%    100.00% |           0      0.00%    100.00% |           0      0.00%    100.00% |           0      0.00%    100.00% |           0      0.00%    100.00%
system.ruby.L2Cache_Controller.MT_IIB.WB_Data::total           14                      
system.ruby.L2Cache_Controller.MT_IIB.WB_Data_clean |           3    100.00%    100.00% |           0      0.00%    100.00% |           0      0.00%    100.00% |           0      0.00%    100.00% |           0      0.00%    100.00% |           0      0.00%    100.00% |           0      0.00%    100.00% |           0      0.00%    100.00% |           0      0.00%    100.00% |           0      0.00%    100.00% |           0      0.00%    100.00% |           0      0.00%    100.00% |           0      0.00%    100.00% |           0      0.00%    100.00% |           0      0.00%    100.00% |           0      0.00%    100.00% |           0      0.00%    100.00% |           0      0.00%    100.00% |           0      0.00%    100.00% |           0      0.00%    100.00% |           0      0.00%    100.00% |           0      0.00%    100.00% |           0      0.00%    100.00% |           0      0.00%    100.00% |           0      0.00%    100.00% |           0      0.00%    100.00% |           0      0.00%    100.00% |           0      0.00%    100.00% |           0      0.00%    100.00% |           0      0.00%    100.00% |           0      0.00%    100.00% |           0      0.00%    100.00%
system.ruby.L2Cache_Controller.MT_IIB.WB_Data_clean::total            3                      
system.ruby.L2Cache_Controller.MT_IIB.Unblock |           0      0.00%      0.00% |           0      0.00%      0.00% |           0      0.00%      0.00% |           0      0.00%      0.00% |           0      0.00%      0.00% |           0      0.00%      0.00% |           0      0.00%      0.00% |           1     50.00%     50.00% |           0      0.00%     50.00% |           0      0.00%     50.00% |           0      0.00%     50.00% |           0      0.00%     50.00% |           0      0.00%     50.00% |           1     50.00%    100.00% |           0      0.00%    100.00% |           0      0.00%    100.00% |           0      0.00%    100.00% |           0      0.00%    100.00% |           0      0.00%    100.00% |           0      0.00%    100.00% |           0      0.00%    100.00% |           0      0.00%    100.00% |           0      0.00%    100.00% |           0      0.00%    100.00% |           0      0.00%    100.00% |           0      0.00%    100.00% |           0      0.00%    100.00% |           0      0.00%    100.00% |           0      0.00%    100.00% |           0      0.00%    100.00% |           0      0.00%    100.00% |           0      0.00%    100.00%
system.ruby.L2Cache_Controller.MT_IIB.Unblock::total            2                      
system.ruby.L2Cache_Controller.MT_IB.WB_Data |           0      0.00%      0.00% |           0      0.00%      0.00% |           0      0.00%      0.00% |           0      0.00%      0.00% |           0      0.00%      0.00% |           0      0.00%      0.00% |           0      0.00%      0.00% |           1     50.00%     50.00% |           0      0.00%     50.00% |           0      0.00%     50.00% |           0      0.00%     50.00% |           0      0.00%     50.00% |           0      0.00%     50.00% |           1     50.00%    100.00% |           0      0.00%    100.00% |           0      0.00%    100.00% |           0      0.00%    100.00% |           0      0.00%    100.00% |           0      0.00%    100.00% |           0      0.00%    100.00% |           0      0.00%    100.00% |           0      0.00%    100.00% |           0      0.00%    100.00% |           0      0.00%    100.00% |           0      0.00%    100.00% |           0      0.00%    100.00% |           0      0.00%    100.00% |           0      0.00%    100.00% |           0      0.00%    100.00% |           0      0.00%    100.00% |           0      0.00%    100.00% |           0      0.00%    100.00%
system.ruby.L2Cache_Controller.MT_IB.WB_Data::total            2                      
system.ruby.L2Cache_Controller.MT_SB.Unblock |           3     17.65%     17.65% |           0      0.00%     17.65% |           1      5.88%     23.53% |           1      5.88%     29.41% |           1      5.88%     35.29% |           0      0.00%     35.29% |           1      5.88%     41.18% |           0      0.00%     41.18% |           1      5.88%     47.06% |           1      5.88%     52.94% |           1      5.88%     58.82% |           1      5.88%     64.71% |           1      5.88%     70.59% |           0      0.00%     70.59% |           1      5.88%     76.47% |           1      5.88%     82.35% |           1      5.88%     88.24% |           1      5.88%     94.12% |           1      5.88%    100.00% |           0      0.00%    100.00% |           0      0.00%    100.00% |           0      0.00%    100.00% |           0      0.00%    100.00% |           0      0.00%    100.00% |           0      0.00%    100.00% |           0      0.00%    100.00% |           0      0.00%    100.00% |           0      0.00%    100.00% |           0      0.00%    100.00% |           0      0.00%    100.00% |           0      0.00%    100.00% |           0      0.00%    100.00%
system.ruby.L2Cache_Controller.MT_SB.Unblock::total           17                      
system.ruby.SimicsNetworkPortInterface_Controller.MessageSend |       39717     12.27%     12.27% |      161837     50.00%     62.27% |        7905      2.44%     64.71% |        8536      2.64%     67.35% |        7809      2.41%     69.76% |        8477      2.62%     72.38% |        7903      2.44%     74.82% |        8383      2.59%     77.41% |        6906      2.13%     79.55% |        7400      2.29%     81.83% |        6887      2.13%     83.96% |        7473      2.31%     86.27% |        8011      2.48%     88.74% |        7410      2.29%     91.03% |        6793      2.10%     93.13% |        6991      2.16%     95.29% |        7369      2.28%     97.57% |        7867      2.43%    100.00% |           0      0.00%    100.00% |           0      0.00%    100.00% |           0      0.00%    100.00% |           0      0.00%    100.00% |           0      0.00%    100.00% |           0      0.00%    100.00% |           0      0.00%    100.00% |           0      0.00%    100.00% |           0      0.00%    100.00% |           0      0.00%    100.00% |           0      0.00%    100.00% |           0      0.00%    100.00% |           0      0.00%    100.00% |           0      0.00%    100.00%
system.ruby.SimicsNetworkPortInterface_Controller.MessageSend::total       323674                      
system.ruby.SimicsNetworkPortInterface_Controller.MessageRecv |       39717     12.27%     12.27% |      161837     50.00%     62.27% |        7905      2.44%     64.71% |        8536      2.64%     67.35% |        7809      2.41%     69.76% |        8477      2.62%     72.38% |        7903      2.44%     74.82% |        8383      2.59%     77.41% |        6906      2.13%     79.55% |        7400      2.29%     81.83% |        6887      2.13%     83.96% |        7473      2.31%     86.27% |        8011      2.48%     88.74% |        7410      2.29%     91.03% |        6793      2.10%     93.13% |        6991      2.16%     95.29% |        7369      2.28%     97.57% |        7867      2.43%    100.00% |           0      0.00%    100.00% |           0      0.00%    100.00% |           0      0.00%    100.00% |           0      0.00%    100.00% |           0      0.00%    100.00% |           0      0.00%    100.00% |           0      0.00%    100.00% |           0      0.00%    100.00% |           0      0.00%    100.00% |           0      0.00%    100.00% |           0      0.00%    100.00% |           0      0.00%    100.00% |           0      0.00%    100.00% |           0      0.00%    100.00%
system.ruby.SimicsNetworkPortInterface_Controller.MessageRecv::total       323674                      
system.ruby.SimicsNetworkPortInterface_Controller.A.MessageSend |       39717     12.27%     12.27% |      161837     50.00%     62.27% |        7905      2.44%     64.71% |        8536      2.64%     67.35% |        7809      2.41%     69.76% |        8477      2.62%     72.38% |        7903      2.44%     74.82% |        8383      2.59%     77.41% |        6906      2.13%     79.55% |        7400      2.29%     81.83% |        6887      2.13%     83.96% |        7473      2.31%     86.27% |        8011      2.48%     88.74% |        7410      2.29%     91.03% |        6793      2.10%     93.13% |        6991      2.16%     95.29% |        7369      2.28%     97.57% |        7867      2.43%    100.00% |           0      0.00%    100.00% |           0      0.00%    100.00% |           0      0.00%    100.00% |           0      0.00%    100.00% |           0      0.00%    100.00% |           0      0.00%    100.00% |           0      0.00%    100.00% |           0      0.00%    100.00% |           0      0.00%    100.00% |           0      0.00%    100.00% |           0      0.00%    100.00% |           0      0.00%    100.00% |           0      0.00%    100.00% |           0      0.00%    100.00%
system.ruby.SimicsNetworkPortInterface_Controller.A.MessageSend::total       323674                      
system.ruby.SimicsNetworkPortInterface_Controller.A.MessageRecv |       39717     12.27%     12.27% |      161837     50.00%     62.27% |        7905      2.44%     64.71% |        8536      2.64%     67.35% |        7809      2.41%     69.76% |        8477      2.62%     72.38% |        7903      2.44%     74.82% |        8383      2.59%     77.41% |        6906      2.13%     79.55% |        7400      2.29%     81.83% |        6887      2.13%     83.96% |        7473      2.31%     86.27% |        8011      2.48%     88.74% |        7410      2.29%     91.03% |        6793      2.10%     93.13% |        6991      2.16%     95.29% |        7369      2.28%     97.57% |        7867      2.43%    100.00% |           0      0.00%    100.00% |           0      0.00%    100.00% |           0      0.00%    100.00% |           0      0.00%    100.00% |           0      0.00%    100.00% |           0      0.00%    100.00% |           0      0.00%    100.00% |           0      0.00%    100.00% |           0      0.00%    100.00% |           0      0.00%    100.00% |           0      0.00%    100.00% |           0      0.00%    100.00% |           0      0.00%    100.00% |           0      0.00%    100.00%
system.ruby.SimicsNetworkPortInterface_Controller.A.MessageRecv::total       323674                      
system.switch_cpus.kern.inst.arm                    0                       # number of arm instructions executed
system.switch_cpus.kern.inst.quiesce                0                       # number of quiesce instructions executed

---------- End Simulation Statistics   ----------
