
---------- Begin Simulation Statistics ----------
sim_seconds                                  0.053637                       # Number of seconds simulated
sim_ticks                                 53636633500                       # Number of ticks simulated
final_tick                               5229804712000                       # Number of ticks from beginning of simulation (restored from checkpoints and never reset)
sim_freq                                 1000000000000                       # Frequency of simulated ticks
host_inst_rate                                  36362                       # Simulator instruction rate (inst/s)
host_op_rate                                    66668                       # Simulator op (including micro ops) rate (op/s)
host_tick_rate                               60819869                       # Simulator tick rate (ticks/s)
host_mem_usage                                4804068                       # Number of bytes of host memory used
host_seconds                                   881.89                       # Real time elapsed on the host
sim_insts                                    32067718                       # Number of instructions simulated
sim_ops                                      58793917                       # Number of ops (including micro ops) simulated
system.voltage_domain.voltage                       1                       # Voltage in Volts
system.clk_domain.clock                           500                       # Clock period in ticks
system.mem_ctrls0.bytes_read::ruby.dir_cntrl0     14104384                       # Number of bytes read from this memory
system.mem_ctrls0.bytes_read::total          14104384                       # Number of bytes read from this memory
system.mem_ctrls0.bytes_written::ruby.dir_cntrl0      4027520                       # Number of bytes written to this memory
system.mem_ctrls0.bytes_written::total        4027520                       # Number of bytes written to this memory
system.mem_ctrls0.num_reads::ruby.dir_cntrl0       220381                       # Number of read requests responded to by this memory
system.mem_ctrls0.num_reads::total             220381                       # Number of read requests responded to by this memory
system.mem_ctrls0.num_writes::ruby.dir_cntrl0        62930                       # Number of write requests responded to by this memory
system.mem_ctrls0.num_writes::total             62930                       # Number of write requests responded to by this memory
system.mem_ctrls0.bw_read::ruby.dir_cntrl0    262961768                       # Total read bandwidth from this memory (bytes/s)
system.mem_ctrls0.bw_read::total            262961768                       # Total read bandwidth from this memory (bytes/s)
system.mem_ctrls0.bw_write::ruby.dir_cntrl0     75088978                       # Write bandwidth from this memory (bytes/s)
system.mem_ctrls0.bw_write::total            75088978                       # Write bandwidth from this memory (bytes/s)
system.mem_ctrls0.bw_total::ruby.dir_cntrl0    338050747                       # Total bandwidth to/from this memory (bytes/s)
system.mem_ctrls0.bw_total::total           338050747                       # Total bandwidth to/from this memory (bytes/s)
system.mem_ctrls0.readReqs                     220381                       # Number of read requests accepted
system.mem_ctrls0.writeReqs                     62930                       # Number of write requests accepted
system.mem_ctrls0.readBursts                   220381                       # Number of DRAM read bursts, including those serviced by the write queue
system.mem_ctrls0.writeBursts                   62930                       # Number of DRAM write bursts, including those merged in the write queue
system.mem_ctrls0.bytesReadDRAM              14102016                       # Total number of bytes read from DRAM
system.mem_ctrls0.bytesReadWrQ                   2368                       # Total number of bytes read from write queue
system.mem_ctrls0.bytesWritten                4027264                       # Total number of bytes written to DRAM
system.mem_ctrls0.bytesReadSys               14104384                       # Total read bytes from the system interface side
system.mem_ctrls0.bytesWrittenSys             4027520                       # Total written bytes from the system interface side
system.mem_ctrls0.servicedByWrQ                    37                       # Number of DRAM read bursts serviced by the write queue
system.mem_ctrls0.mergedWrBursts                    0                       # Number of DRAM write bursts merged with an existing one
system.mem_ctrls0.neitherReadNorWriteReqs            0                       # Number of requests that are neither read nor write
system.mem_ctrls0.perBankRdBursts::0            13534                       # Per bank write bursts
system.mem_ctrls0.perBankRdBursts::1            14039                       # Per bank write bursts
system.mem_ctrls0.perBankRdBursts::2            13708                       # Per bank write bursts
system.mem_ctrls0.perBankRdBursts::3            14156                       # Per bank write bursts
system.mem_ctrls0.perBankRdBursts::4            13782                       # Per bank write bursts
system.mem_ctrls0.perBankRdBursts::5            14351                       # Per bank write bursts
system.mem_ctrls0.perBankRdBursts::6            13802                       # Per bank write bursts
system.mem_ctrls0.perBankRdBursts::7            13720                       # Per bank write bursts
system.mem_ctrls0.perBankRdBursts::8            13632                       # Per bank write bursts
system.mem_ctrls0.perBankRdBursts::9            13991                       # Per bank write bursts
system.mem_ctrls0.perBankRdBursts::10           13673                       # Per bank write bursts
system.mem_ctrls0.perBankRdBursts::11           13893                       # Per bank write bursts
system.mem_ctrls0.perBankRdBursts::12           13432                       # Per bank write bursts
system.mem_ctrls0.perBankRdBursts::13           13337                       # Per bank write bursts
system.mem_ctrls0.perBankRdBursts::14           13645                       # Per bank write bursts
system.mem_ctrls0.perBankRdBursts::15           13649                       # Per bank write bursts
system.mem_ctrls0.perBankWrBursts::0             3865                       # Per bank write bursts
system.mem_ctrls0.perBankWrBursts::1             3937                       # Per bank write bursts
system.mem_ctrls0.perBankWrBursts::2             3918                       # Per bank write bursts
system.mem_ctrls0.perBankWrBursts::3             4163                       # Per bank write bursts
system.mem_ctrls0.perBankWrBursts::4             3954                       # Per bank write bursts
system.mem_ctrls0.perBankWrBursts::5             4092                       # Per bank write bursts
system.mem_ctrls0.perBankWrBursts::6             3997                       # Per bank write bursts
system.mem_ctrls0.perBankWrBursts::7             3952                       # Per bank write bursts
system.mem_ctrls0.perBankWrBursts::8             3848                       # Per bank write bursts
system.mem_ctrls0.perBankWrBursts::9             4102                       # Per bank write bursts
system.mem_ctrls0.perBankWrBursts::10            3859                       # Per bank write bursts
system.mem_ctrls0.perBankWrBursts::11            3790                       # Per bank write bursts
system.mem_ctrls0.perBankWrBursts::12            3733                       # Per bank write bursts
system.mem_ctrls0.perBankWrBursts::13            3785                       # Per bank write bursts
system.mem_ctrls0.perBankWrBursts::14            4039                       # Per bank write bursts
system.mem_ctrls0.perBankWrBursts::15            3892                       # Per bank write bursts
system.mem_ctrls0.numRdRetry                     6764                       # Number of times read queue was full causing retry
system.mem_ctrls0.numWrRetry                     1387                       # Number of times write queue was full causing retry
system.mem_ctrls0.totGap                  53636142000                       # Total gap between requests
system.mem_ctrls0.readPktSize::0                    0                       # Read request sizes (log2)
system.mem_ctrls0.readPktSize::1                    0                       # Read request sizes (log2)
system.mem_ctrls0.readPktSize::2                    0                       # Read request sizes (log2)
system.mem_ctrls0.readPktSize::3                    0                       # Read request sizes (log2)
system.mem_ctrls0.readPktSize::4                    0                       # Read request sizes (log2)
system.mem_ctrls0.readPktSize::5                    0                       # Read request sizes (log2)
system.mem_ctrls0.readPktSize::6               220381                       # Read request sizes (log2)
system.mem_ctrls0.writePktSize::0                   0                       # Write request sizes (log2)
system.mem_ctrls0.writePktSize::1                   0                       # Write request sizes (log2)
system.mem_ctrls0.writePktSize::2                   0                       # Write request sizes (log2)
system.mem_ctrls0.writePktSize::3                   0                       # Write request sizes (log2)
system.mem_ctrls0.writePktSize::4                   0                       # Write request sizes (log2)
system.mem_ctrls0.writePktSize::5                   0                       # Write request sizes (log2)
system.mem_ctrls0.writePktSize::6               62930                       # Write request sizes (log2)
system.mem_ctrls0.rdQLenPdf::0                  79428                       # What read queue length does an incoming req see
system.mem_ctrls0.rdQLenPdf::1                  29478                       # What read queue length does an incoming req see
system.mem_ctrls0.rdQLenPdf::2                  33784                       # What read queue length does an incoming req see
system.mem_ctrls0.rdQLenPdf::3                  28780                       # What read queue length does an incoming req see
system.mem_ctrls0.rdQLenPdf::4                  19181                       # What read queue length does an incoming req see
system.mem_ctrls0.rdQLenPdf::5                  10670                       # What read queue length does an incoming req see
system.mem_ctrls0.rdQLenPdf::6                   5384                       # What read queue length does an incoming req see
system.mem_ctrls0.rdQLenPdf::7                   2547                       # What read queue length does an incoming req see
system.mem_ctrls0.rdQLenPdf::8                   1190                       # What read queue length does an incoming req see
system.mem_ctrls0.rdQLenPdf::9                    619                       # What read queue length does an incoming req see
system.mem_ctrls0.rdQLenPdf::10                   354                       # What read queue length does an incoming req see
system.mem_ctrls0.rdQLenPdf::11                   241                       # What read queue length does an incoming req see
system.mem_ctrls0.rdQLenPdf::12                   172                       # What read queue length does an incoming req see
system.mem_ctrls0.rdQLenPdf::13                   155                       # What read queue length does an incoming req see
system.mem_ctrls0.rdQLenPdf::14                   136                       # What read queue length does an incoming req see
system.mem_ctrls0.rdQLenPdf::15                   118                       # What read queue length does an incoming req see
system.mem_ctrls0.rdQLenPdf::16                    86                       # What read queue length does an incoming req see
system.mem_ctrls0.rdQLenPdf::17                    76                       # What read queue length does an incoming req see
system.mem_ctrls0.rdQLenPdf::18                    77                       # What read queue length does an incoming req see
system.mem_ctrls0.rdQLenPdf::19                    72                       # What read queue length does an incoming req see
system.mem_ctrls0.rdQLenPdf::20                    54                       # What read queue length does an incoming req see
system.mem_ctrls0.rdQLenPdf::21                    48                       # What read queue length does an incoming req see
system.mem_ctrls0.rdQLenPdf::22                    46                       # What read queue length does an incoming req see
system.mem_ctrls0.rdQLenPdf::23                    33                       # What read queue length does an incoming req see
system.mem_ctrls0.rdQLenPdf::24                    39                       # What read queue length does an incoming req see
system.mem_ctrls0.rdQLenPdf::25                    50                       # What read queue length does an incoming req see
system.mem_ctrls0.rdQLenPdf::26                    63                       # What read queue length does an incoming req see
system.mem_ctrls0.rdQLenPdf::27                    76                       # What read queue length does an incoming req see
system.mem_ctrls0.rdQLenPdf::28                    70                       # What read queue length does an incoming req see
system.mem_ctrls0.rdQLenPdf::29                    93                       # What read queue length does an incoming req see
system.mem_ctrls0.rdQLenPdf::30                   132                       # What read queue length does an incoming req see
system.mem_ctrls0.rdQLenPdf::31                  7092                       # What read queue length does an incoming req see
system.mem_ctrls0.wrQLenPdf::0                  11571                       # What write queue length does an incoming req see
system.mem_ctrls0.wrQLenPdf::1                  11794                       # What write queue length does an incoming req see
system.mem_ctrls0.wrQLenPdf::2                  11829                       # What write queue length does an incoming req see
system.mem_ctrls0.wrQLenPdf::3                  11816                       # What write queue length does an incoming req see
system.mem_ctrls0.wrQLenPdf::4                  11848                       # What write queue length does an incoming req see
system.mem_ctrls0.wrQLenPdf::5                    776                       # What write queue length does an incoming req see
system.mem_ctrls0.wrQLenPdf::6                    883                       # What write queue length does an incoming req see
system.mem_ctrls0.wrQLenPdf::7                   2413                       # What write queue length does an incoming req see
system.mem_ctrls0.bytesPerActivate::samples       169175                       # Bytes accessed per row activation
system.mem_ctrls0.bytesPerActivate::mean   107.158717                       # Bytes accessed per row activation
system.mem_ctrls0.bytesPerActivate::gmean    83.977727                       # Bytes accessed per row activation
system.mem_ctrls0.bytesPerActivate::stdev   115.702593                       # Bytes accessed per row activation
system.mem_ctrls0.bytesPerActivate::0-127       132914     78.57%     78.57% # Bytes accessed per row activation
system.mem_ctrls0.bytesPerActivate::128-255        18060     10.68%     89.24% # Bytes accessed per row activation
system.mem_ctrls0.bytesPerActivate::256-383        13490      7.97%     97.22% # Bytes accessed per row activation
system.mem_ctrls0.bytesPerActivate::384-511         1670      0.99%     98.20% # Bytes accessed per row activation
system.mem_ctrls0.bytesPerActivate::512-639         1063      0.63%     98.83% # Bytes accessed per row activation
system.mem_ctrls0.bytesPerActivate::640-767          622      0.37%     99.20% # Bytes accessed per row activation
system.mem_ctrls0.bytesPerActivate::768-895          431      0.25%     99.45% # Bytes accessed per row activation
system.mem_ctrls0.bytesPerActivate::896-1023          355      0.21%     99.66% # Bytes accessed per row activation
system.mem_ctrls0.bytesPerActivate::1024-1151          570      0.34%    100.00% # Bytes accessed per row activation
system.mem_ctrls0.bytesPerActivate::total       169175                       # Bytes accessed per row activation
system.mem_ctrls0.rdPerTurnAround::samples        11679                       # Reads before turning the bus around for writes
system.mem_ctrls0.rdPerTurnAround::mean     18.855981                       # Reads before turning the bus around for writes
system.mem_ctrls0.rdPerTurnAround::stdev    94.120378                       # Reads before turning the bus around for writes
system.mem_ctrls0.rdPerTurnAround::0-127        11400     97.61%     97.61% # Reads before turning the bus around for writes
system.mem_ctrls0.rdPerTurnAround::128-255          169      1.45%     99.06% # Reads before turning the bus around for writes
system.mem_ctrls0.rdPerTurnAround::256-383           44      0.38%     99.43% # Reads before turning the bus around for writes
system.mem_ctrls0.rdPerTurnAround::384-511           19      0.16%     99.60% # Reads before turning the bus around for writes
system.mem_ctrls0.rdPerTurnAround::512-639            6      0.05%     99.65% # Reads before turning the bus around for writes
system.mem_ctrls0.rdPerTurnAround::640-767           12      0.10%     99.75% # Reads before turning the bus around for writes
system.mem_ctrls0.rdPerTurnAround::768-895            3      0.03%     99.78% # Reads before turning the bus around for writes
system.mem_ctrls0.rdPerTurnAround::896-1023            2      0.02%     99.79% # Reads before turning the bus around for writes
system.mem_ctrls0.rdPerTurnAround::1024-1151            1      0.01%     99.80% # Reads before turning the bus around for writes
system.mem_ctrls0.rdPerTurnAround::1152-1279            3      0.03%     99.83% # Reads before turning the bus around for writes
system.mem_ctrls0.rdPerTurnAround::1280-1407            6      0.05%     99.88% # Reads before turning the bus around for writes
system.mem_ctrls0.rdPerTurnAround::1408-1535            1      0.01%     99.89% # Reads before turning the bus around for writes
system.mem_ctrls0.rdPerTurnAround::1536-1663            2      0.02%     99.91% # Reads before turning the bus around for writes
system.mem_ctrls0.rdPerTurnAround::1664-1791            2      0.02%     99.92% # Reads before turning the bus around for writes
system.mem_ctrls0.rdPerTurnAround::1792-1919            3      0.03%     99.95% # Reads before turning the bus around for writes
system.mem_ctrls0.rdPerTurnAround::1920-2047            3      0.03%     99.97% # Reads before turning the bus around for writes
system.mem_ctrls0.rdPerTurnAround::2048-2175            1      0.01%     99.98% # Reads before turning the bus around for writes
system.mem_ctrls0.rdPerTurnAround::2304-2431            1      0.01%     99.99% # Reads before turning the bus around for writes
system.mem_ctrls0.rdPerTurnAround::3968-4095            1      0.01%    100.00% # Reads before turning the bus around for writes
system.mem_ctrls0.rdPerTurnAround::total        11679                       # Reads before turning the bus around for writes
system.mem_ctrls0.wrPerTurnAround::samples        11679                       # Writes before turning the bus around for reads
system.mem_ctrls0.wrPerTurnAround::mean      5.387961                       # Writes before turning the bus around for reads
system.mem_ctrls0.wrPerTurnAround::gmean     5.239270                       # Writes before turning the bus around for reads
system.mem_ctrls0.wrPerTurnAround::stdev     1.786209                       # Writes before turning the bus around for reads
system.mem_ctrls0.wrPerTurnAround::4-7          11210     95.98%     95.98% # Writes before turning the bus around for reads
system.mem_ctrls0.wrPerTurnAround::8-11           110      0.94%     96.93% # Writes before turning the bus around for reads
system.mem_ctrls0.wrPerTurnAround::12-15          169      1.45%     98.37% # Writes before turning the bus around for reads
system.mem_ctrls0.wrPerTurnAround::16-19          190      1.63%    100.00% # Writes before turning the bus around for reads
system.mem_ctrls0.wrPerTurnAround::total        11679                       # Writes before turning the bus around for reads
system.mem_ctrls0.totQLat                  8839384255                       # Total ticks spent queuing
system.mem_ctrls0.totMemAccLat            12970834255                       # Total ticks spent from burst creation until serviced by the DRAM
system.mem_ctrls0.totBusLat                1101720000                       # Total ticks spent in databus transfers
system.mem_ctrls0.avgQLat                    40116.29                       # Average queueing delay per DRAM burst
system.mem_ctrls0.avgBusLat                   5000.00                       # Average bus latency per DRAM burst
system.mem_ctrls0.avgMemAccLat               58866.29                       # Average memory access latency per DRAM burst
system.mem_ctrls0.avgRdBW                      262.92                       # Average DRAM read bandwidth in MiByte/s
system.mem_ctrls0.avgWrBW                       75.08                       # Average achieved write bandwidth in MiByte/s
system.mem_ctrls0.avgRdBWSys                   262.96                       # Average system read bandwidth in MiByte/s
system.mem_ctrls0.avgWrBWSys                    75.09                       # Average system write bandwidth in MiByte/s
system.mem_ctrls0.peakBW                     12800.00                       # Theoretical peak bandwidth in MiByte/s
system.mem_ctrls0.busUtil                        2.64                       # Data bus utilization in percentage
system.mem_ctrls0.busUtilRead                    2.05                       # Data bus utilization in percentage for reads
system.mem_ctrls0.busUtilWrite                   0.59                       # Data bus utilization in percentage for writes
system.mem_ctrls0.avgRdQLen                      1.24                       # Average read queue length when enqueuing
system.mem_ctrls0.avgWrQLen                      2.86                       # Average write queue length when enqueuing
system.mem_ctrls0.readRowHits                   77513                       # Number of row buffer hits during reads
system.mem_ctrls0.writeRowHits                  36574                       # Number of row buffer hits during writes
system.mem_ctrls0.readRowHitRate                35.18                       # Row buffer hit rate for reads
system.mem_ctrls0.writeRowHitRate               58.12                       # Row buffer hit rate for writes
system.mem_ctrls0.avgGap                    189318.95                       # Average gap between requests
system.mem_ctrls0.pageHitRate                   40.27                       # Row buffer hit rate, read and write combined
system.mem_ctrls0.memoryStateTime::IDLE   10785528500                       # Time in different power states
system.mem_ctrls0.memoryStateTime::REF     1790880000                       # Time in different power states
system.mem_ctrls0.memoryStateTime::PRE_PDN            0                       # Time in different power states
system.mem_ctrls0.memoryStateTime::ACT    41055805500                       # Time in different power states
system.mem_ctrls0.memoryStateTime::ACT_PDN            0                       # Time in different power states
system.mem_ctrls0.actEnergy::0              640248840                       # Energy for activate commands per rank (pJ)
system.mem_ctrls0.actEnergy::1              638668800                       # Energy for activate commands per rank (pJ)
system.mem_ctrls0.preEnergy::0              349342125                       # Energy for precharge commands per rank (pJ)
system.mem_ctrls0.preEnergy::1              348480000                       # Energy for precharge commands per rank (pJ)
system.mem_ctrls0.readEnergy::0             866431800                       # Energy for read commands per rank (pJ)
system.mem_ctrls0.readEnergy::1             852111000                       # Energy for read commands per rank (pJ)
system.mem_ctrls0.writeEnergy::0            206569440                       # Energy for write commands per rank (pJ)
system.mem_ctrls0.writeEnergy::1            201191040                       # Energy for write commands per rank (pJ)
system.mem_ctrls0.refreshEnergy::0         3502961280                       # Energy for refresh commands per rank (pJ)
system.mem_ctrls0.refreshEnergy::1         3502961280                       # Energy for refresh commands per rank (pJ)
system.mem_ctrls0.actBackEnergy::0        21491119260                       # Energy for active background per rank (pJ)
system.mem_ctrls0.actBackEnergy::1        20981246850                       # Energy for active background per rank (pJ)
system.mem_ctrls0.preBackEnergy::0        13327311000                       # Energy for precharge background per rank (pJ)
system.mem_ctrls0.preBackEnergy::1        13774567500                       # Energy for precharge background per rank (pJ)
system.mem_ctrls0.totalEnergy::0          40383983745                       # Total energy per rank (pJ)
system.mem_ctrls0.totalEnergy::1          40299226470                       # Total energy per rank (pJ)
system.mem_ctrls0.averagePower::0          752.983692                       # Core power per rank (mW)
system.mem_ctrls0.averagePower::1          751.403342                       # Core power per rank (mW)
system.mem_ctrls1.bytes_read::ruby.dir_cntrl1     13844864                       # Number of bytes read from this memory
system.mem_ctrls1.bytes_read::total          13844864                       # Number of bytes read from this memory
system.mem_ctrls1.bytes_written::ruby.dir_cntrl1      3845248                       # Number of bytes written to this memory
system.mem_ctrls1.bytes_written::total        3845248                       # Number of bytes written to this memory
system.mem_ctrls1.num_reads::ruby.dir_cntrl1       216326                       # Number of read requests responded to by this memory
system.mem_ctrls1.num_reads::total             216326                       # Number of read requests responded to by this memory
system.mem_ctrls1.num_writes::ruby.dir_cntrl1        60082                       # Number of write requests responded to by this memory
system.mem_ctrls1.num_writes::total             60082                       # Number of write requests responded to by this memory
system.mem_ctrls1.bw_read::ruby.dir_cntrl1    258123284                       # Total read bandwidth from this memory (bytes/s)
system.mem_ctrls1.bw_read::total            258123284                       # Total read bandwidth from this memory (bytes/s)
system.mem_ctrls1.bw_write::ruby.dir_cntrl1     71690704                       # Write bandwidth from this memory (bytes/s)
system.mem_ctrls1.bw_write::total            71690704                       # Write bandwidth from this memory (bytes/s)
system.mem_ctrls1.bw_total::ruby.dir_cntrl1    329813988                       # Total bandwidth to/from this memory (bytes/s)
system.mem_ctrls1.bw_total::total           329813988                       # Total bandwidth to/from this memory (bytes/s)
system.mem_ctrls1.readReqs                     216326                       # Number of read requests accepted
system.mem_ctrls1.writeReqs                     60082                       # Number of write requests accepted
system.mem_ctrls1.readBursts                   216326                       # Number of DRAM read bursts, including those serviced by the write queue
system.mem_ctrls1.writeBursts                   60082                       # Number of DRAM write bursts, including those merged in the write queue
system.mem_ctrls1.bytesReadDRAM              13843264                       # Total number of bytes read from DRAM
system.mem_ctrls1.bytesReadWrQ                   1600                       # Total number of bytes read from write queue
system.mem_ctrls1.bytesWritten                3845056                       # Total number of bytes written to DRAM
system.mem_ctrls1.bytesReadSys               13844864                       # Total read bytes from the system interface side
system.mem_ctrls1.bytesWrittenSys             3845248                       # Total written bytes from the system interface side
system.mem_ctrls1.servicedByWrQ                    25                       # Number of DRAM read bursts serviced by the write queue
system.mem_ctrls1.mergedWrBursts                    0                       # Number of DRAM write bursts merged with an existing one
system.mem_ctrls1.neitherReadNorWriteReqs            0                       # Number of requests that are neither read nor write
system.mem_ctrls1.perBankRdBursts::0            13289                       # Per bank write bursts
system.mem_ctrls1.perBankRdBursts::1            13797                       # Per bank write bursts
system.mem_ctrls1.perBankRdBursts::2            13465                       # Per bank write bursts
system.mem_ctrls1.perBankRdBursts::3            13893                       # Per bank write bursts
system.mem_ctrls1.perBankRdBursts::4            13527                       # Per bank write bursts
system.mem_ctrls1.perBankRdBursts::5            14125                       # Per bank write bursts
system.mem_ctrls1.perBankRdBursts::6            13526                       # Per bank write bursts
system.mem_ctrls1.perBankRdBursts::7            13503                       # Per bank write bursts
system.mem_ctrls1.perBankRdBursts::8            13380                       # Per bank write bursts
system.mem_ctrls1.perBankRdBursts::9            13701                       # Per bank write bursts
system.mem_ctrls1.perBankRdBursts::10           13417                       # Per bank write bursts
system.mem_ctrls1.perBankRdBursts::11           13654                       # Per bank write bursts
system.mem_ctrls1.perBankRdBursts::12           13210                       # Per bank write bursts
system.mem_ctrls1.perBankRdBursts::13           13101                       # Per bank write bursts
system.mem_ctrls1.perBankRdBursts::14           13294                       # Per bank write bursts
system.mem_ctrls1.perBankRdBursts::15           13419                       # Per bank write bursts
system.mem_ctrls1.perBankWrBursts::0             3694                       # Per bank write bursts
system.mem_ctrls1.perBankWrBursts::1             3779                       # Per bank write bursts
system.mem_ctrls1.perBankWrBursts::2             3758                       # Per bank write bursts
system.mem_ctrls1.perBankWrBursts::3             3989                       # Per bank write bursts
system.mem_ctrls1.perBankWrBursts::4             3779                       # Per bank write bursts
system.mem_ctrls1.perBankWrBursts::5             3927                       # Per bank write bursts
system.mem_ctrls1.perBankWrBursts::6             3803                       # Per bank write bursts
system.mem_ctrls1.perBankWrBursts::7             3776                       # Per bank write bursts
system.mem_ctrls1.perBankWrBursts::8             3675                       # Per bank write bursts
system.mem_ctrls1.perBankWrBursts::9             3908                       # Per bank write bursts
system.mem_ctrls1.perBankWrBursts::10            3680                       # Per bank write bursts
system.mem_ctrls1.perBankWrBursts::11            3613                       # Per bank write bursts
system.mem_ctrls1.perBankWrBursts::12            3566                       # Per bank write bursts
system.mem_ctrls1.perBankWrBursts::13            3609                       # Per bank write bursts
system.mem_ctrls1.perBankWrBursts::14            3804                       # Per bank write bursts
system.mem_ctrls1.perBankWrBursts::15            3719                       # Per bank write bursts
system.mem_ctrls1.numRdRetry                     5207                       # Number of times read queue was full causing retry
system.mem_ctrls1.numWrRetry                     1317                       # Number of times write queue was full causing retry
system.mem_ctrls1.totGap                  53635883000                       # Total gap between requests
system.mem_ctrls1.readPktSize::0                    0                       # Read request sizes (log2)
system.mem_ctrls1.readPktSize::1                    0                       # Read request sizes (log2)
system.mem_ctrls1.readPktSize::2                    0                       # Read request sizes (log2)
system.mem_ctrls1.readPktSize::3                    0                       # Read request sizes (log2)
system.mem_ctrls1.readPktSize::4                    0                       # Read request sizes (log2)
system.mem_ctrls1.readPktSize::5                    0                       # Read request sizes (log2)
system.mem_ctrls1.readPktSize::6               216326                       # Read request sizes (log2)
system.mem_ctrls1.writePktSize::0                   0                       # Write request sizes (log2)
system.mem_ctrls1.writePktSize::1                   0                       # Write request sizes (log2)
system.mem_ctrls1.writePktSize::2                   0                       # Write request sizes (log2)
system.mem_ctrls1.writePktSize::3                   0                       # Write request sizes (log2)
system.mem_ctrls1.writePktSize::4                   0                       # Write request sizes (log2)
system.mem_ctrls1.writePktSize::5                   0                       # Write request sizes (log2)
system.mem_ctrls1.writePktSize::6               60082                       # Write request sizes (log2)
system.mem_ctrls1.rdQLenPdf::0                  77076                       # What read queue length does an incoming req see
system.mem_ctrls1.rdQLenPdf::1                  30170                       # What read queue length does an incoming req see
system.mem_ctrls1.rdQLenPdf::2                  33672                       # What read queue length does an incoming req see
system.mem_ctrls1.rdQLenPdf::3                  28632                       # What read queue length does an incoming req see
system.mem_ctrls1.rdQLenPdf::4                  18893                       # What read queue length does an incoming req see
system.mem_ctrls1.rdQLenPdf::5                  10416                       # What read queue length does an incoming req see
system.mem_ctrls1.rdQLenPdf::6                   5016                       # What read queue length does an incoming req see
system.mem_ctrls1.rdQLenPdf::7                   2288                       # What read queue length does an incoming req see
system.mem_ctrls1.rdQLenPdf::8                   1089                       # What read queue length does an incoming req see
system.mem_ctrls1.rdQLenPdf::9                    622                       # What read queue length does an incoming req see
system.mem_ctrls1.rdQLenPdf::10                   370                       # What read queue length does an incoming req see
system.mem_ctrls1.rdQLenPdf::11                   273                       # What read queue length does an incoming req see
system.mem_ctrls1.rdQLenPdf::12                   219                       # What read queue length does an incoming req see
system.mem_ctrls1.rdQLenPdf::13                   196                       # What read queue length does an incoming req see
system.mem_ctrls1.rdQLenPdf::14                   183                       # What read queue length does an incoming req see
system.mem_ctrls1.rdQLenPdf::15                   166                       # What read queue length does an incoming req see
system.mem_ctrls1.rdQLenPdf::16                   161                       # What read queue length does an incoming req see
system.mem_ctrls1.rdQLenPdf::17                   143                       # What read queue length does an incoming req see
system.mem_ctrls1.rdQLenPdf::18                   138                       # What read queue length does an incoming req see
system.mem_ctrls1.rdQLenPdf::19                   128                       # What read queue length does an incoming req see
system.mem_ctrls1.rdQLenPdf::20                    93                       # What read queue length does an incoming req see
system.mem_ctrls1.rdQLenPdf::21                    93                       # What read queue length does an incoming req see
system.mem_ctrls1.rdQLenPdf::22                    82                       # What read queue length does an incoming req see
system.mem_ctrls1.rdQLenPdf::23                    86                       # What read queue length does an incoming req see
system.mem_ctrls1.rdQLenPdf::24                    98                       # What read queue length does an incoming req see
system.mem_ctrls1.rdQLenPdf::25                    77                       # What read queue length does an incoming req see
system.mem_ctrls1.rdQLenPdf::26                    75                       # What read queue length does an incoming req see
system.mem_ctrls1.rdQLenPdf::27                    75                       # What read queue length does an incoming req see
system.mem_ctrls1.rdQLenPdf::28                    59                       # What read queue length does an incoming req see
system.mem_ctrls1.rdQLenPdf::29                    71                       # What read queue length does an incoming req see
system.mem_ctrls1.rdQLenPdf::30                   123                       # What read queue length does an incoming req see
system.mem_ctrls1.rdQLenPdf::31                  5518                       # What read queue length does an incoming req see
system.mem_ctrls1.wrQLenPdf::0                  11006                       # What write queue length does an incoming req see
system.mem_ctrls1.wrQLenPdf::1                  11271                       # What write queue length does an incoming req see
system.mem_ctrls1.wrQLenPdf::2                  11307                       # What write queue length does an incoming req see
system.mem_ctrls1.wrQLenPdf::3                  11318                       # What write queue length does an incoming req see
system.mem_ctrls1.wrQLenPdf::4                  11333                       # What write queue length does an incoming req see
system.mem_ctrls1.wrQLenPdf::5                    727                       # What write queue length does an incoming req see
system.mem_ctrls1.wrQLenPdf::6                    827                       # What write queue length does an incoming req see
system.mem_ctrls1.wrQLenPdf::7                   2293                       # What write queue length does an incoming req see
system.mem_ctrls1.bytesPerActivate::samples       163673                       # Bytes accessed per row activation
system.mem_ctrls1.bytesPerActivate::mean   108.066792                       # Bytes accessed per row activation
system.mem_ctrls1.bytesPerActivate::gmean    84.089828                       # Bytes accessed per row activation
system.mem_ctrls1.bytesPerActivate::stdev   119.107699                       # Bytes accessed per row activation
system.mem_ctrls1.bytesPerActivate::0-127       128698     78.63%     78.63% # Bytes accessed per row activation
system.mem_ctrls1.bytesPerActivate::128-255        17178     10.50%     89.13% # Bytes accessed per row activation
system.mem_ctrls1.bytesPerActivate::256-383        13009      7.95%     97.07% # Bytes accessed per row activation
system.mem_ctrls1.bytesPerActivate::384-511         1554      0.95%     98.02% # Bytes accessed per row activation
system.mem_ctrls1.bytesPerActivate::512-639         1101      0.67%     98.70% # Bytes accessed per row activation
system.mem_ctrls1.bytesPerActivate::640-767          694      0.42%     99.12% # Bytes accessed per row activation
system.mem_ctrls1.bytesPerActivate::768-895          445      0.27%     99.39% # Bytes accessed per row activation
system.mem_ctrls1.bytesPerActivate::896-1023          408      0.25%     99.64% # Bytes accessed per row activation
system.mem_ctrls1.bytesPerActivate::1024-1151          586      0.36%    100.00% # Bytes accessed per row activation
system.mem_ctrls1.bytesPerActivate::total       163673                       # Bytes accessed per row activation
system.mem_ctrls1.rdPerTurnAround::samples        11126                       # Reads before turning the bus around for writes
system.mem_ctrls1.rdPerTurnAround::mean     19.436455                       # Reads before turning the bus around for writes
system.mem_ctrls1.rdPerTurnAround::stdev    96.680056                       # Reads before turning the bus around for writes
system.mem_ctrls1.rdPerTurnAround::0-127        10858     97.59%     97.59% # Reads before turning the bus around for writes
system.mem_ctrls1.rdPerTurnAround::128-255          155      1.39%     98.98% # Reads before turning the bus around for writes
system.mem_ctrls1.rdPerTurnAround::256-383           49      0.44%     99.42% # Reads before turning the bus around for writes
system.mem_ctrls1.rdPerTurnAround::384-511           16      0.14%     99.57% # Reads before turning the bus around for writes
system.mem_ctrls1.rdPerTurnAround::512-639            9      0.08%     99.65% # Reads before turning the bus around for writes
system.mem_ctrls1.rdPerTurnAround::640-767            3      0.03%     99.68% # Reads before turning the bus around for writes
system.mem_ctrls1.rdPerTurnAround::768-895            3      0.03%     99.70% # Reads before turning the bus around for writes
system.mem_ctrls1.rdPerTurnAround::896-1023            4      0.04%     99.74% # Reads before turning the bus around for writes
system.mem_ctrls1.rdPerTurnAround::1024-1151            7      0.06%     99.80% # Reads before turning the bus around for writes
system.mem_ctrls1.rdPerTurnAround::1152-1279            3      0.03%     99.83% # Reads before turning the bus around for writes
system.mem_ctrls1.rdPerTurnAround::1280-1407            3      0.03%     99.86% # Reads before turning the bus around for writes
system.mem_ctrls1.rdPerTurnAround::1408-1535            2      0.02%     99.87% # Reads before turning the bus around for writes
system.mem_ctrls1.rdPerTurnAround::1536-1663            2      0.02%     99.89% # Reads before turning the bus around for writes
system.mem_ctrls1.rdPerTurnAround::1664-1791            2      0.02%     99.91% # Reads before turning the bus around for writes
system.mem_ctrls1.rdPerTurnAround::1792-1919            3      0.03%     99.94% # Reads before turning the bus around for writes
system.mem_ctrls1.rdPerTurnAround::2048-2175            4      0.04%     99.97% # Reads before turning the bus around for writes
system.mem_ctrls1.rdPerTurnAround::2176-2303            1      0.01%     99.98% # Reads before turning the bus around for writes
system.mem_ctrls1.rdPerTurnAround::2304-2431            1      0.01%     99.99% # Reads before turning the bus around for writes
system.mem_ctrls1.rdPerTurnAround::2816-2943            1      0.01%    100.00% # Reads before turning the bus around for writes
system.mem_ctrls1.rdPerTurnAround::total        11126                       # Reads before turning the bus around for writes
system.mem_ctrls1.wrPerTurnAround::samples        11126                       # Writes before turning the bus around for reads
system.mem_ctrls1.wrPerTurnAround::mean      5.399874                       # Writes before turning the bus around for reads
system.mem_ctrls1.wrPerTurnAround::gmean     5.247323                       # Writes before turning the bus around for reads
system.mem_ctrls1.wrPerTurnAround::stdev     1.810877                       # Writes before turning the bus around for reads
system.mem_ctrls1.wrPerTurnAround::4-7          10668     95.88%     95.88% # Writes before turning the bus around for reads
system.mem_ctrls1.wrPerTurnAround::8-11           116      1.04%     96.93% # Writes before turning the bus around for reads
system.mem_ctrls1.wrPerTurnAround::12-15          143      1.29%     98.21% # Writes before turning the bus around for reads
system.mem_ctrls1.wrPerTurnAround::16-19          199      1.79%    100.00% # Writes before turning the bus around for reads
system.mem_ctrls1.wrPerTurnAround::total        11126                       # Writes before turning the bus around for reads
system.mem_ctrls1.totQLat                  8385254303                       # Total ticks spent queuing
system.mem_ctrls1.totMemAccLat            12440898053                       # Total ticks spent from burst creation until serviced by the DRAM
system.mem_ctrls1.totBusLat                1081505000                       # Total ticks spent in databus transfers
system.mem_ctrls1.avgQLat                    38766.60                       # Average queueing delay per DRAM burst
system.mem_ctrls1.avgBusLat                   5000.00                       # Average bus latency per DRAM burst
system.mem_ctrls1.avgMemAccLat               57516.60                       # Average memory access latency per DRAM burst
system.mem_ctrls1.avgRdBW                      258.09                       # Average DRAM read bandwidth in MiByte/s
system.mem_ctrls1.avgWrBW                       71.69                       # Average achieved write bandwidth in MiByte/s
system.mem_ctrls1.avgRdBWSys                   258.12                       # Average system read bandwidth in MiByte/s
system.mem_ctrls1.avgWrBWSys                    71.69                       # Average system write bandwidth in MiByte/s
system.mem_ctrls1.peakBW                     12800.00                       # Theoretical peak bandwidth in MiByte/s
system.mem_ctrls1.busUtil                        2.58                       # Data bus utilization in percentage
system.mem_ctrls1.busUtilRead                    2.02                       # Data bus utilization in percentage for reads
system.mem_ctrls1.busUtilWrite                   0.56                       # Data bus utilization in percentage for writes
system.mem_ctrls1.avgRdQLen                      1.21                       # Average read queue length when enqueuing
system.mem_ctrls1.avgWrQLen                      2.92                       # Average write queue length when enqueuing
system.mem_ctrls1.readRowHits                   75828                       # Number of row buffer hits during reads
system.mem_ctrls1.writeRowHits                  36872                       # Number of row buffer hits during writes
system.mem_ctrls1.readRowHitRate                35.06                       # Row buffer hit rate for reads
system.mem_ctrls1.writeRowHitRate               61.37                       # Row buffer hit rate for writes
system.mem_ctrls1.avgGap                    194046.06                       # Average gap between requests
system.mem_ctrls1.pageHitRate                   40.78                       # Row buffer hit rate, read and write combined
system.mem_ctrls1.memoryStateTime::IDLE   11213897500                       # Time in different power states
system.mem_ctrls1.memoryStateTime::REF     1790880000                       # Time in different power states
system.mem_ctrls1.memoryStateTime::PRE_PDN            0                       # Time in different power states
system.mem_ctrls1.memoryStateTime::ACT    40627534500                       # Time in different power states
system.mem_ctrls1.memoryStateTime::ACT_PDN            0                       # Time in different power states
system.mem_ctrls1.actEnergy::0              620592840                       # Energy for activate commands per rank (pJ)
system.mem_ctrls1.actEnergy::1              616759920                       # Energy for activate commands per rank (pJ)
system.mem_ctrls1.preEnergy::0              338617125                       # Energy for precharge commands per rank (pJ)
system.mem_ctrls1.preEnergy::1              336525750                       # Energy for precharge commands per rank (pJ)
system.mem_ctrls1.readEnergy::0             851081400                       # Energy for read commands per rank (pJ)
system.mem_ctrls1.readEnergy::1             835933800                       # Energy for read commands per rank (pJ)
system.mem_ctrls1.writeEnergy::0            197672400                       # Energy for write commands per rank (pJ)
system.mem_ctrls1.writeEnergy::1            191639520                       # Energy for write commands per rank (pJ)
system.mem_ctrls1.refreshEnergy::0         3502961280                       # Energy for refresh commands per rank (pJ)
system.mem_ctrls1.refreshEnergy::1         3502961280                       # Energy for refresh commands per rank (pJ)
system.mem_ctrls1.actBackEnergy::0        21179930040                       # Energy for active background per rank (pJ)
system.mem_ctrls1.actBackEnergy::1        20409309135                       # Energy for active background per rank (pJ)
system.mem_ctrls1.preBackEnergy::0        13600284000                       # Energy for precharge background per rank (pJ)
system.mem_ctrls1.preBackEnergy::1        14276267250                       # Energy for precharge background per rank (pJ)
system.mem_ctrls1.totalEnergy::0          40291139085                       # Total energy per rank (pJ)
system.mem_ctrls1.totalEnergy::1          40169396655                       # Total energy per rank (pJ)
system.mem_ctrls1.averagePower::0          751.252548                       # Core power per rank (mW)
system.mem_ctrls1.averagePower::1          748.982587                       # Core power per rank (mW)
system.mem_ctrls2.bytes_read::ruby.dir_cntrl2     13845440                       # Number of bytes read from this memory
system.mem_ctrls2.bytes_read::total          13845440                       # Number of bytes read from this memory
system.mem_ctrls2.bytes_written::ruby.dir_cntrl2      3845888                       # Number of bytes written to this memory
system.mem_ctrls2.bytes_written::total        3845888                       # Number of bytes written to this memory
system.mem_ctrls2.num_reads::ruby.dir_cntrl2       216335                       # Number of read requests responded to by this memory
system.mem_ctrls2.num_reads::total             216335                       # Number of read requests responded to by this memory
system.mem_ctrls2.num_writes::ruby.dir_cntrl2        60092                       # Number of write requests responded to by this memory
system.mem_ctrls2.num_writes::total             60092                       # Number of write requests responded to by this memory
system.mem_ctrls2.bw_read::ruby.dir_cntrl2    258134023                       # Total read bandwidth from this memory (bytes/s)
system.mem_ctrls2.bw_read::total            258134023                       # Total read bandwidth from this memory (bytes/s)
system.mem_ctrls2.bw_write::ruby.dir_cntrl2     71702636                       # Write bandwidth from this memory (bytes/s)
system.mem_ctrls2.bw_write::total            71702636                       # Write bandwidth from this memory (bytes/s)
system.mem_ctrls2.bw_total::ruby.dir_cntrl2    329836659                       # Total bandwidth to/from this memory (bytes/s)
system.mem_ctrls2.bw_total::total           329836659                       # Total bandwidth to/from this memory (bytes/s)
system.mem_ctrls2.readReqs                     216335                       # Number of read requests accepted
system.mem_ctrls2.writeReqs                     60092                       # Number of write requests accepted
system.mem_ctrls2.readBursts                   216335                       # Number of DRAM read bursts, including those serviced by the write queue
system.mem_ctrls2.writeBursts                   60092                       # Number of DRAM write bursts, including those merged in the write queue
system.mem_ctrls2.bytesReadDRAM              13844672                       # Total number of bytes read from DRAM
system.mem_ctrls2.bytesReadWrQ                    768                       # Total number of bytes read from write queue
system.mem_ctrls2.bytesWritten                3845632                       # Total number of bytes written to DRAM
system.mem_ctrls2.bytesReadSys               13845440                       # Total read bytes from the system interface side
system.mem_ctrls2.bytesWrittenSys             3845888                       # Total written bytes from the system interface side
system.mem_ctrls2.servicedByWrQ                    12                       # Number of DRAM read bursts serviced by the write queue
system.mem_ctrls2.mergedWrBursts                    0                       # Number of DRAM write bursts merged with an existing one
system.mem_ctrls2.neitherReadNorWriteReqs            0                       # Number of requests that are neither read nor write
system.mem_ctrls2.perBankRdBursts::0            13292                       # Per bank write bursts
system.mem_ctrls2.perBankRdBursts::1            13814                       # Per bank write bursts
system.mem_ctrls2.perBankRdBursts::2            13484                       # Per bank write bursts
system.mem_ctrls2.perBankRdBursts::3            13918                       # Per bank write bursts
system.mem_ctrls2.perBankRdBursts::4            13540                       # Per bank write bursts
system.mem_ctrls2.perBankRdBursts::5            14118                       # Per bank write bursts
system.mem_ctrls2.perBankRdBursts::6            13486                       # Per bank write bursts
system.mem_ctrls2.perBankRdBursts::7            13488                       # Per bank write bursts
system.mem_ctrls2.perBankRdBursts::8            13375                       # Per bank write bursts
system.mem_ctrls2.perBankRdBursts::9            13705                       # Per bank write bursts
system.mem_ctrls2.perBankRdBursts::10           13423                       # Per bank write bursts
system.mem_ctrls2.perBankRdBursts::11           13699                       # Per bank write bursts
system.mem_ctrls2.perBankRdBursts::12           13205                       # Per bank write bursts
system.mem_ctrls2.perBankRdBursts::13           13064                       # Per bank write bursts
system.mem_ctrls2.perBankRdBursts::14           13297                       # Per bank write bursts
system.mem_ctrls2.perBankRdBursts::15           13415                       # Per bank write bursts
system.mem_ctrls2.perBankWrBursts::0             3687                       # Per bank write bursts
system.mem_ctrls2.perBankWrBursts::1             3775                       # Per bank write bursts
system.mem_ctrls2.perBankWrBursts::2             3754                       # Per bank write bursts
system.mem_ctrls2.perBankWrBursts::3             4002                       # Per bank write bursts
system.mem_ctrls2.perBankWrBursts::4             3778                       # Per bank write bursts
system.mem_ctrls2.perBankWrBursts::5             3916                       # Per bank write bursts
system.mem_ctrls2.perBankWrBursts::6             3812                       # Per bank write bursts
system.mem_ctrls2.perBankWrBursts::7             3779                       # Per bank write bursts
system.mem_ctrls2.perBankWrBursts::8             3677                       # Per bank write bursts
system.mem_ctrls2.perBankWrBursts::9             3916                       # Per bank write bursts
system.mem_ctrls2.perBankWrBursts::10            3677                       # Per bank write bursts
system.mem_ctrls2.perBankWrBursts::11            3609                       # Per bank write bursts
system.mem_ctrls2.perBankWrBursts::12            3575                       # Per bank write bursts
system.mem_ctrls2.perBankWrBursts::13            3602                       # Per bank write bursts
system.mem_ctrls2.perBankWrBursts::14            3809                       # Per bank write bursts
system.mem_ctrls2.perBankWrBursts::15            3720                       # Per bank write bursts
system.mem_ctrls2.numRdRetry                     4265                       # Number of times read queue was full causing retry
system.mem_ctrls2.numWrRetry                     1172                       # Number of times write queue was full causing retry
system.mem_ctrls2.totGap                  53635930000                       # Total gap between requests
system.mem_ctrls2.readPktSize::0                    0                       # Read request sizes (log2)
system.mem_ctrls2.readPktSize::1                    0                       # Read request sizes (log2)
system.mem_ctrls2.readPktSize::2                    0                       # Read request sizes (log2)
system.mem_ctrls2.readPktSize::3                    0                       # Read request sizes (log2)
system.mem_ctrls2.readPktSize::4                    0                       # Read request sizes (log2)
system.mem_ctrls2.readPktSize::5                    0                       # Read request sizes (log2)
system.mem_ctrls2.readPktSize::6               216335                       # Read request sizes (log2)
system.mem_ctrls2.writePktSize::0                   0                       # Write request sizes (log2)
system.mem_ctrls2.writePktSize::1                   0                       # Write request sizes (log2)
system.mem_ctrls2.writePktSize::2                   0                       # Write request sizes (log2)
system.mem_ctrls2.writePktSize::3                   0                       # Write request sizes (log2)
system.mem_ctrls2.writePktSize::4                   0                       # Write request sizes (log2)
system.mem_ctrls2.writePktSize::5                   0                       # Write request sizes (log2)
system.mem_ctrls2.writePktSize::6               60092                       # Write request sizes (log2)
system.mem_ctrls2.rdQLenPdf::0                  77097                       # What read queue length does an incoming req see
system.mem_ctrls2.rdQLenPdf::1                  30174                       # What read queue length does an incoming req see
system.mem_ctrls2.rdQLenPdf::2                  33912                       # What read queue length does an incoming req see
system.mem_ctrls2.rdQLenPdf::3                  28898                       # What read queue length does an incoming req see
system.mem_ctrls2.rdQLenPdf::4                  18937                       # What read queue length does an incoming req see
system.mem_ctrls2.rdQLenPdf::5                  10154                       # What read queue length does an incoming req see
system.mem_ctrls2.rdQLenPdf::6                   4884                       # What read queue length does an incoming req see
system.mem_ctrls2.rdQLenPdf::7                   2339                       # What read queue length does an incoming req see
system.mem_ctrls2.rdQLenPdf::8                   1222                       # What read queue length does an incoming req see
system.mem_ctrls2.rdQLenPdf::9                    632                       # What read queue length does an incoming req see
system.mem_ctrls2.rdQLenPdf::10                   431                       # What read queue length does an incoming req see
system.mem_ctrls2.rdQLenPdf::11                   351                       # What read queue length does an incoming req see
system.mem_ctrls2.rdQLenPdf::12                   296                       # What read queue length does an incoming req see
system.mem_ctrls2.rdQLenPdf::13                   235                       # What read queue length does an incoming req see
system.mem_ctrls2.rdQLenPdf::14                   214                       # What read queue length does an incoming req see
system.mem_ctrls2.rdQLenPdf::15                   177                       # What read queue length does an incoming req see
system.mem_ctrls2.rdQLenPdf::16                   156                       # What read queue length does an incoming req see
system.mem_ctrls2.rdQLenPdf::17                   157                       # What read queue length does an incoming req see
system.mem_ctrls2.rdQLenPdf::18                   135                       # What read queue length does an incoming req see
system.mem_ctrls2.rdQLenPdf::19                   153                       # What read queue length does an incoming req see
system.mem_ctrls2.rdQLenPdf::20                   122                       # What read queue length does an incoming req see
system.mem_ctrls2.rdQLenPdf::21                   127                       # What read queue length does an incoming req see
system.mem_ctrls2.rdQLenPdf::22                   102                       # What read queue length does an incoming req see
system.mem_ctrls2.rdQLenPdf::23                   113                       # What read queue length does an incoming req see
system.mem_ctrls2.rdQLenPdf::24                    96                       # What read queue length does an incoming req see
system.mem_ctrls2.rdQLenPdf::25                    98                       # What read queue length does an incoming req see
system.mem_ctrls2.rdQLenPdf::26                    93                       # What read queue length does an incoming req see
system.mem_ctrls2.rdQLenPdf::27                    90                       # What read queue length does an incoming req see
system.mem_ctrls2.rdQLenPdf::28                   115                       # What read queue length does an incoming req see
system.mem_ctrls2.rdQLenPdf::29                   107                       # What read queue length does an incoming req see
system.mem_ctrls2.rdQLenPdf::30                   157                       # What read queue length does an incoming req see
system.mem_ctrls2.rdQLenPdf::31                  4549                       # What read queue length does an incoming req see
system.mem_ctrls2.wrQLenPdf::0                  11014                       # What write queue length does an incoming req see
system.mem_ctrls2.wrQLenPdf::1                  11318                       # What write queue length does an incoming req see
system.mem_ctrls2.wrQLenPdf::2                  11345                       # What write queue length does an incoming req see
system.mem_ctrls2.wrQLenPdf::3                  11383                       # What write queue length does an incoming req see
system.mem_ctrls2.wrQLenPdf::4                  11366                       # What write queue length does an incoming req see
system.mem_ctrls2.wrQLenPdf::5                    781                       # What write queue length does an incoming req see
system.mem_ctrls2.wrQLenPdf::6                    835                       # What write queue length does an incoming req see
system.mem_ctrls2.wrQLenPdf::7                   2050                       # What write queue length does an incoming req see
system.mem_ctrls2.bytesPerActivate::samples       164021                       # Bytes accessed per row activation
system.mem_ctrls2.bytesPerActivate::mean   107.848044                       # Bytes accessed per row activation
system.mem_ctrls2.bytesPerActivate::gmean    83.953125                       # Bytes accessed per row activation
system.mem_ctrls2.bytesPerActivate::stdev   118.950012                       # Bytes accessed per row activation
system.mem_ctrls2.bytesPerActivate::0-127       129254     78.80%     78.80% # Bytes accessed per row activation
system.mem_ctrls2.bytesPerActivate::128-255        16869     10.28%     89.09% # Bytes accessed per row activation
system.mem_ctrls2.bytesPerActivate::256-383        13073      7.97%     97.06% # Bytes accessed per row activation
system.mem_ctrls2.bytesPerActivate::384-511         1613      0.98%     98.04% # Bytes accessed per row activation
system.mem_ctrls2.bytesPerActivate::512-639         1078      0.66%     98.70% # Bytes accessed per row activation
system.mem_ctrls2.bytesPerActivate::640-767          690      0.42%     99.12% # Bytes accessed per row activation
system.mem_ctrls2.bytesPerActivate::768-895          436      0.27%     99.39% # Bytes accessed per row activation
system.mem_ctrls2.bytesPerActivate::896-1023          418      0.25%     99.64% # Bytes accessed per row activation
system.mem_ctrls2.bytesPerActivate::1024-1151          590      0.36%    100.00% # Bytes accessed per row activation
system.mem_ctrls2.bytesPerActivate::total       164021                       # Bytes accessed per row activation
system.mem_ctrls2.rdPerTurnAround::samples        11149                       # Reads before turning the bus around for writes
system.mem_ctrls2.rdPerTurnAround::mean     19.392591                       # Reads before turning the bus around for writes
system.mem_ctrls2.rdPerTurnAround::stdev    97.687871                       # Reads before turning the bus around for writes
system.mem_ctrls2.rdPerTurnAround::0-127        10893     97.70%     97.70% # Reads before turning the bus around for writes
system.mem_ctrls2.rdPerTurnAround::128-255          153      1.37%     99.08% # Reads before turning the bus around for writes
system.mem_ctrls2.rdPerTurnAround::256-383           36      0.32%     99.40% # Reads before turning the bus around for writes
system.mem_ctrls2.rdPerTurnAround::384-511           15      0.13%     99.53% # Reads before turning the bus around for writes
system.mem_ctrls2.rdPerTurnAround::512-639            7      0.06%     99.60% # Reads before turning the bus around for writes
system.mem_ctrls2.rdPerTurnAround::640-767            7      0.06%     99.66% # Reads before turning the bus around for writes
system.mem_ctrls2.rdPerTurnAround::768-895            2      0.02%     99.68% # Reads before turning the bus around for writes
system.mem_ctrls2.rdPerTurnAround::896-1023            2      0.02%     99.70% # Reads before turning the bus around for writes
system.mem_ctrls2.rdPerTurnAround::1024-1151            9      0.08%     99.78% # Reads before turning the bus around for writes
system.mem_ctrls2.rdPerTurnAround::1152-1279            7      0.06%     99.84% # Reads before turning the bus around for writes
system.mem_ctrls2.rdPerTurnAround::1280-1407            1      0.01%     99.85% # Reads before turning the bus around for writes
system.mem_ctrls2.rdPerTurnAround::1408-1535            3      0.03%     99.87% # Reads before turning the bus around for writes
system.mem_ctrls2.rdPerTurnAround::1536-1663            2      0.02%     99.89% # Reads before turning the bus around for writes
system.mem_ctrls2.rdPerTurnAround::1664-1791            1      0.01%     99.90% # Reads before turning the bus around for writes
system.mem_ctrls2.rdPerTurnAround::1792-1919            5      0.04%     99.95% # Reads before turning the bus around for writes
system.mem_ctrls2.rdPerTurnAround::2048-2175            2      0.02%     99.96% # Reads before turning the bus around for writes
system.mem_ctrls2.rdPerTurnAround::2176-2303            2      0.02%     99.98% # Reads before turning the bus around for writes
system.mem_ctrls2.rdPerTurnAround::2304-2431            1      0.01%     99.99% # Reads before turning the bus around for writes
system.mem_ctrls2.rdPerTurnAround::2816-2943            1      0.01%    100.00% # Reads before turning the bus around for writes
system.mem_ctrls2.rdPerTurnAround::total        11149                       # Reads before turning the bus around for writes
system.mem_ctrls2.wrPerTurnAround::samples        11149                       # Writes before turning the bus around for reads
system.mem_ctrls2.wrPerTurnAround::mean      5.389542                       # Writes before turning the bus around for reads
system.mem_ctrls2.wrPerTurnAround::gmean     5.241634                       # Writes before turning the bus around for reads
system.mem_ctrls2.wrPerTurnAround::stdev     1.777678                       # Writes before turning the bus around for reads
system.mem_ctrls2.wrPerTurnAround::4-7          10679     95.78%     95.78% # Writes before turning the bus around for reads
system.mem_ctrls2.wrPerTurnAround::8-11           152      1.36%     97.15% # Writes before turning the bus around for reads
system.mem_ctrls2.wrPerTurnAround::12-15          132      1.18%     98.33% # Writes before turning the bus around for reads
system.mem_ctrls2.wrPerTurnAround::16-19          186      1.67%    100.00% # Writes before turning the bus around for reads
system.mem_ctrls2.wrPerTurnAround::total        11149                       # Writes before turning the bus around for reads
system.mem_ctrls2.totQLat                  8152835095                       # Total ticks spent queuing
system.mem_ctrls2.totMemAccLat            12208891345                       # Total ticks spent from burst creation until serviced by the DRAM
system.mem_ctrls2.totBusLat                1081615000                       # Total ticks spent in databus transfers
system.mem_ctrls2.avgQLat                    37688.25                       # Average queueing delay per DRAM burst
system.mem_ctrls2.avgBusLat                   5000.00                       # Average bus latency per DRAM burst
system.mem_ctrls2.avgMemAccLat               56438.25                       # Average memory access latency per DRAM burst
system.mem_ctrls2.avgRdBW                      258.12                       # Average DRAM read bandwidth in MiByte/s
system.mem_ctrls2.avgWrBW                       71.70                       # Average achieved write bandwidth in MiByte/s
system.mem_ctrls2.avgRdBWSys                   258.13                       # Average system read bandwidth in MiByte/s
system.mem_ctrls2.avgWrBWSys                    71.70                       # Average system write bandwidth in MiByte/s
system.mem_ctrls2.peakBW                     12800.00                       # Theoretical peak bandwidth in MiByte/s
system.mem_ctrls2.busUtil                        2.58                       # Data bus utilization in percentage
system.mem_ctrls2.busUtilRead                    2.02                       # Data bus utilization in percentage for reads
system.mem_ctrls2.busUtilWrite                   0.56                       # Data bus utilization in percentage for writes
system.mem_ctrls2.avgRdQLen                      1.20                       # Average read queue length when enqueuing
system.mem_ctrls2.avgWrQLen                      2.99                       # Average write queue length when enqueuing
system.mem_ctrls2.readRowHits                   75630                       # Number of row buffer hits during reads
system.mem_ctrls2.writeRowHits                  36752                       # Number of row buffer hits during writes
system.mem_ctrls2.readRowHitRate                34.96                       # Row buffer hit rate for reads
system.mem_ctrls2.writeRowHitRate               61.16                       # Row buffer hit rate for writes
system.mem_ctrls2.avgGap                    194032.89                       # Average gap between requests
system.mem_ctrls2.pageHitRate                   40.66                       # Row buffer hit rate, read and write combined
system.mem_ctrls2.memoryStateTime::IDLE   11118295750                       # Time in different power states
system.mem_ctrls2.memoryStateTime::REF     1790880000                       # Time in different power states
system.mem_ctrls2.memoryStateTime::PRE_PDN            0                       # Time in different power states
system.mem_ctrls2.memoryStateTime::ACT    40722788000                       # Time in different power states
system.mem_ctrls2.memoryStateTime::ACT_PDN            0                       # Time in different power states
system.mem_ctrls2.actEnergy::0              622860840                       # Energy for activate commands per rank (pJ)
system.mem_ctrls2.actEnergy::1              617130360                       # Energy for activate commands per rank (pJ)
system.mem_ctrls2.preEnergy::0              339854625                       # Energy for precharge commands per rank (pJ)
system.mem_ctrls2.preEnergy::1              336727875                       # Energy for precharge commands per rank (pJ)
system.mem_ctrls2.readEnergy::0             851206200                       # Energy for read commands per rank (pJ)
system.mem_ctrls2.readEnergy::1             835988400                       # Energy for read commands per rank (pJ)
system.mem_ctrls2.writeEnergy::0            197659440                       # Energy for write commands per rank (pJ)
system.mem_ctrls2.writeEnergy::1            191710800                       # Energy for write commands per rank (pJ)
system.mem_ctrls2.refreshEnergy::0         3502961280                       # Energy for refresh commands per rank (pJ)
system.mem_ctrls2.refreshEnergy::1         3502961280                       # Energy for refresh commands per rank (pJ)
system.mem_ctrls2.actBackEnergy::0        21158090775                       # Energy for active background per rank (pJ)
system.mem_ctrls2.actBackEnergy::1        20554151265                       # Energy for active background per rank (pJ)
system.mem_ctrls2.preBackEnergy::0        13619441250                       # Energy for precharge background per rank (pJ)
system.mem_ctrls2.preBackEnergy::1        14149212750                       # Energy for precharge background per rank (pJ)
system.mem_ctrls2.totalEnergy::0          40292074410                       # Total energy per rank (pJ)
system.mem_ctrls2.totalEnergy::1          40187882730                       # Total energy per rank (pJ)
system.mem_ctrls2.averagePower::0          751.269988                       # Core power per rank (mW)
system.mem_ctrls2.averagePower::1          749.327271                       # Core power per rank (mW)
system.mem_ctrls3.bytes_read::ruby.dir_cntrl3     13845056                       # Number of bytes read from this memory
system.mem_ctrls3.bytes_read::total          13845056                       # Number of bytes read from this memory
system.mem_ctrls3.bytes_written::ruby.dir_cntrl3      3843200                       # Number of bytes written to this memory
system.mem_ctrls3.bytes_written::total        3843200                       # Number of bytes written to this memory
system.mem_ctrls3.num_reads::ruby.dir_cntrl3       216329                       # Number of read requests responded to by this memory
system.mem_ctrls3.num_reads::total             216329                       # Number of read requests responded to by this memory
system.mem_ctrls3.num_writes::ruby.dir_cntrl3        60050                       # Number of write requests responded to by this memory
system.mem_ctrls3.num_writes::total             60050                       # Number of write requests responded to by this memory
system.mem_ctrls3.bw_read::ruby.dir_cntrl3    258126864                       # Total read bandwidth from this memory (bytes/s)
system.mem_ctrls3.bw_read::total            258126864                       # Total read bandwidth from this memory (bytes/s)
system.mem_ctrls3.bw_write::ruby.dir_cntrl3     71652521                       # Write bandwidth from this memory (bytes/s)
system.mem_ctrls3.bw_write::total            71652521                       # Write bandwidth from this memory (bytes/s)
system.mem_ctrls3.bw_total::ruby.dir_cntrl3    329779385                       # Total bandwidth to/from this memory (bytes/s)
system.mem_ctrls3.bw_total::total           329779385                       # Total bandwidth to/from this memory (bytes/s)
system.mem_ctrls3.readReqs                     216330                       # Number of read requests accepted
system.mem_ctrls3.writeReqs                     60050                       # Number of write requests accepted
system.mem_ctrls3.readBursts                   216330                       # Number of DRAM read bursts, including those serviced by the write queue
system.mem_ctrls3.writeBursts                   60050                       # Number of DRAM write bursts, including those merged in the write queue
system.mem_ctrls3.bytesReadDRAM              13844416                       # Total number of bytes read from DRAM
system.mem_ctrls3.bytesReadWrQ                    704                       # Total number of bytes read from write queue
system.mem_ctrls3.bytesWritten                3842944                       # Total number of bytes written to DRAM
system.mem_ctrls3.bytesReadSys               13845120                       # Total read bytes from the system interface side
system.mem_ctrls3.bytesWrittenSys             3843200                       # Total written bytes from the system interface side
system.mem_ctrls3.servicedByWrQ                    11                       # Number of DRAM read bursts serviced by the write queue
system.mem_ctrls3.mergedWrBursts                    0                       # Number of DRAM write bursts merged with an existing one
system.mem_ctrls3.neitherReadNorWriteReqs            0                       # Number of requests that are neither read nor write
system.mem_ctrls3.perBankRdBursts::0            13265                       # Per bank write bursts
system.mem_ctrls3.perBankRdBursts::1            13794                       # Per bank write bursts
system.mem_ctrls3.perBankRdBursts::2            13434                       # Per bank write bursts
system.mem_ctrls3.perBankRdBursts::3            13898                       # Per bank write bursts
system.mem_ctrls3.perBankRdBursts::4            13488                       # Per bank write bursts
system.mem_ctrls3.perBankRdBursts::5            14304                       # Per bank write bursts
system.mem_ctrls3.perBankRdBursts::6            13507                       # Per bank write bursts
system.mem_ctrls3.perBankRdBursts::7            13481                       # Per bank write bursts
system.mem_ctrls3.perBankRdBursts::8            13376                       # Per bank write bursts
system.mem_ctrls3.perBankRdBursts::9            13701                       # Per bank write bursts
system.mem_ctrls3.perBankRdBursts::10           13452                       # Per bank write bursts
system.mem_ctrls3.perBankRdBursts::11           13653                       # Per bank write bursts
system.mem_ctrls3.perBankRdBursts::12           13200                       # Per bank write bursts
system.mem_ctrls3.perBankRdBursts::13           13055                       # Per bank write bursts
system.mem_ctrls3.perBankRdBursts::14           13311                       # Per bank write bursts
system.mem_ctrls3.perBankRdBursts::15           13400                       # Per bank write bursts
system.mem_ctrls3.perBankWrBursts::0             3692                       # Per bank write bursts
system.mem_ctrls3.perBankWrBursts::1             3769                       # Per bank write bursts
system.mem_ctrls3.perBankWrBursts::2             3750                       # Per bank write bursts
system.mem_ctrls3.perBankWrBursts::3             3985                       # Per bank write bursts
system.mem_ctrls3.perBankWrBursts::4             3776                       # Per bank write bursts
system.mem_ctrls3.perBankWrBursts::5             3913                       # Per bank write bursts
system.mem_ctrls3.perBankWrBursts::6             3808                       # Per bank write bursts
[...]
system.ruby.L2Cache_Controller.IM.Mem_Data::total       190204                      
system.ruby.L2Cache_Controller.SS_MB.Exclusive_Unblock |         201     80.40%     80.40% |           6      2.40%     82.80% |           3      1.20%     84.00% |           6      2.40%     86.40% |           0      0.00%     86.40% |           1      0.40%     86.80% |           1      0.40%     87.20% |           0      0.00%     87.20% |           0      0.00%     87.20% |           1      0.40%     87.60% |           0      0.00%     87.60% |           0      0.00%     87.60% |           5      2.00%     89.60% |           0      0.00%     89.60% |           2      0.80%     90.40% |           1      0.40%     90.80% |           0      0.00%     90.80% |           0      0.00%     90.80% |          10      4.00%     94.80% |           2      0.80%     95.60% |           0      0.00%     95.60% |           0      0.00%     95.60% |           0      0.00%     95.60% |           0      0.00%     95.60% |           1      0.40%     96.00% |           0      0.00%     96.00% |           2      0.80%     96.80% |           1      0.40%     97.20% |           4      1.60%     98.80% |           1      0.40%     99.20% |           1      0.40%     99.60% |           1      0.40%    100.00%
system.ruby.L2Cache_Controller.SS_MB.Exclusive_Unblock::total          250                      
system.ruby.L2Cache_Controller.MT_MB.L1_GETS |           3      8.11%      8.11% |           1      2.70%     10.81% |           0      0.00%     10.81% |           0      0.00%     10.81% |           0      0.00%     10.81% |           0      0.00%     10.81% |           0      0.00%     10.81% |           0      0.00%     10.81% |           0      0.00%     10.81% |           0      0.00%     10.81% |           0      0.00%     10.81% |           0      0.00%     10.81% |           0      0.00%     10.81% |           0      0.00%     10.81% |           0      0.00%     10.81% |           0      0.00%     10.81% |           0      0.00%     10.81% |          14     37.84%     48.65% |          18     48.65%     97.30% |           1      2.70%    100.00% |           0      0.00%    100.00% |           0      0.00%    100.00% |           0      0.00%    100.00% |           0      0.00%    100.00% |           0      0.00%    100.00% |           0      0.00%    100.00% |           0      0.00%    100.00% |           0      0.00%    100.00% |           0      0.00%    100.00% |           0      0.00%    100.00% |           0      0.00%    100.00% |           0      0.00%    100.00%
system.ruby.L2Cache_Controller.MT_MB.L1_GETS::total           37                      
system.ruby.L2Cache_Controller.MT_MB.Exclusive_Unblock |       77585      7.10%      7.10% |       33337      3.05%     10.14% |       32618      2.98%     13.13% |       32827      3.00%     16.13% |       33055      3.02%     19.15% |       31976      2.92%     22.08% |       31911      2.92%     25.00% |       31661      2.90%     27.89% |       33896      3.10%     30.99% |       32299      2.95%     33.95% |       34241      3.13%     37.08% |       33101      3.03%     40.11% |       32635      2.98%     43.09% |       31688      2.90%     45.99% |       31718      2.90%     48.89% |       31649      2.89%     51.78% |       34237      3.13%     54.92% |       32065      2.93%     57.85% |       32914      3.01%     60.86% |       32521      2.97%     63.83% |       32974      3.02%     66.85% |       32420      2.97%     69.81% |       32958      3.01%     72.83% |       31979      2.92%     75.75% |       33590      3.07%     78.83% |       32284      2.95%     81.78% |       32786      3.00%     84.78% |       31788      2.91%     87.68% |       33104      3.03%     90.71% |       31849      2.91%     93.63% |       34219      3.13%     96.75% |       35483      3.25%    100.00%
system.ruby.L2Cache_Controller.MT_MB.Exclusive_Unblock::total      1093368                      
system.ruby.L2Cache_Controller.MT_IIB.L1_GETS |           2      2.27%      2.27% |           5      5.68%      7.95% |           0      0.00%      7.95% |           0      0.00%      7.95% |           0      0.00%      7.95% |           0      0.00%      7.95% |           0      0.00%      7.95% |           0      0.00%      7.95% |           0      0.00%      7.95% |           0      0.00%      7.95% |           0      0.00%      7.95% |           0      0.00%      7.95% |           0      0.00%      7.95% |           0      0.00%      7.95% |           0      0.00%      7.95% |           0      0.00%      7.95% |           0      0.00%      7.95% |          26     29.55%     37.50% |          28     31.82%     69.32% |          27     30.68%    100.00% |           0      0.00%    100.00% |           0      0.00%    100.00% |           0      0.00%    100.00% |           0      0.00%    100.00% |           0      0.00%    100.00% |           0      0.00%    100.00% |           0      0.00%    100.00% |           0      0.00%    100.00% |           0      0.00%    100.00% |           0      0.00%    100.00% |           0      0.00%    100.00% |           0      0.00%    100.00%
system.ruby.L2Cache_Controller.MT_IIB.L1_GETS::total           88                      
system.ruby.L2Cache_Controller.MT_IIB.L1_PUTX |           3    100.00%    100.00% |           0      0.00%    100.00% |           0      0.00%    100.00% |           0      0.00%    100.00% |           0      0.00%    100.00% |           0      0.00%    100.00% |           0      0.00%    100.00% |           0      0.00%    100.00% |           0      0.00%    100.00% |           0      0.00%    100.00% |           0      0.00%    100.00% |           0      0.00%    100.00% |           0      0.00%    100.00% |           0      0.00%    100.00% |           0      0.00%    100.00% |           0      0.00%    100.00% |           0      0.00%    100.00% |           0      0.00%    100.00% |           0      0.00%    100.00% |           0      0.00%    100.00% |           0      0.00%    100.00% |           0      0.00%    100.00% |           0      0.00%    100.00% |           0      0.00%    100.00% |           0      0.00%    100.00% |           0      0.00%    100.00% |           0      0.00%    100.00% |           0      0.00%    100.00% |           0      0.00%    100.00% |           0      0.00%    100.00% |           0      0.00%    100.00% |           0      0.00%    100.00%
system.ruby.L2Cache_Controller.MT_IIB.L1_PUTX::total            3                      
system.ruby.L2Cache_Controller.MT_IIB.WB_Data |         242      6.11%      6.11% |         122      3.08%      9.20% |         119      3.01%     12.20% |         110      2.78%     14.98% |         120      3.03%     18.01% |         120      3.03%     21.05% |         120      3.03%     24.08% |         120      3.03%     27.11% |         120      3.03%     30.14% |         120      3.03%     33.17% |         119      3.01%     36.18% |         118      2.98%     39.16% |         124      3.13%     42.29% |         120      3.03%     45.33% |         120      3.03%     48.36% |         120      3.03%     51.39% |         120      3.03%     54.42% |         120      3.03%     57.45% |         121      3.06%     60.51% |         120      3.03%     63.54% |         120      3.03%     66.57% |         120      3.03%     69.61% |         122      3.08%     72.69% |         120      3.03%     75.72% |         120      3.03%     78.75% |         120      3.03%     81.78% |         120      3.03%     84.82% |         120      3.03%     87.85% |         121      3.06%     90.90% |         120      3.03%     93.94% |         120      3.03%     96.97% |         120      3.03%    100.00%
system.ruby.L2Cache_Controller.MT_IIB.WB_Data::total         3958                      
system.ruby.L2Cache_Controller.MT_IIB.WB_Data_clean |         587     96.07%     96.07% |           4      0.65%     96.73% |           1      0.16%     96.89% |           1      0.16%     97.05% |           0      0.00%     97.05% |           0      0.00%     97.05% |           0      0.00%     97.05% |           0      0.00%     97.05% |           0      0.00%     97.05% |           0      0.00%     97.05% |           0      0.00%     97.05% |           0      0.00%     97.05% |           0      0.00%     97.05% |           0      0.00%     97.05% |           1      0.16%     97.22% |           0      0.00%     97.22% |           1      0.16%     97.38% |           6      0.98%     98.36% |           5      0.82%     99.18% |           4      0.65%     99.84% |           0      0.00%     99.84% |           0      0.00%     99.84% |           0      0.00%     99.84% |           0      0.00%     99.84% |           1      0.16%    100.00% |           0      0.00%    100.00% |           0      0.00%    100.00% |           0      0.00%    100.00% |           0      0.00%    100.00% |           0      0.00%    100.00% |           0      0.00%    100.00% |           0      0.00%    100.00%
system.ruby.L2Cache_Controller.MT_IIB.WB_Data_clean::total          611                      
system.ruby.L2Cache_Controller.MT_IIB.Unblock |           1      5.56%      5.56% |           0      0.00%      5.56% |           1      5.56%     11.11% |          10     55.56%     66.67% |           0      0.00%     66.67% |           0      0.00%     66.67% |           0      0.00%     66.67% |           0      0.00%     66.67% |           0      0.00%     66.67% |           0      0.00%     66.67% |           1      5.56%     72.22% |           2     11.11%     83.33% |           0      0.00%     83.33% |           0      0.00%     83.33% |           0      0.00%     83.33% |           0      0.00%     83.33% |           0      0.00%     83.33% |           0      0.00%     83.33% |           0      0.00%     83.33% |           1      5.56%     88.89% |           0      0.00%     88.89% |           0      0.00%     88.89% |           0      0.00%     88.89% |           0      0.00%     88.89% |           0      0.00%     88.89% |           1      5.56%     94.44% |           0      0.00%     94.44% |           0      0.00%     94.44% |           1      5.56%    100.00% |           0      0.00%    100.00% |           0      0.00%    100.00% |           0      0.00%    100.00%
system.ruby.L2Cache_Controller.MT_IIB.Unblock::total           18                      
system.ruby.L2Cache_Controller.MT_IB.WB_Data |           1      5.56%      5.56% |           0      0.00%      5.56% |           1      5.56%     11.11% |          10     55.56%     66.67% |           0      0.00%     66.67% |           0      0.00%     66.67% |           0      0.00%     66.67% |           0      0.00%     66.67% |           0      0.00%     66.67% |           0      0.00%     66.67% |           1      5.56%     72.22% |           2     11.11%     83.33% |           0      0.00%     83.33% |           0      0.00%     83.33% |           0      0.00%     83.33% |           0      0.00%     83.33% |           0      0.00%     83.33% |           0      0.00%     83.33% |           0      0.00%     83.33% |           1      5.56%     88.89% |           0      0.00%     88.89% |           0      0.00%     88.89% |           0      0.00%     88.89% |           0      0.00%     88.89% |           0      0.00%     88.89% |           1      5.56%     94.44% |           0      0.00%     94.44% |           0      0.00%     94.44% |           1      5.56%    100.00% |           0      0.00%    100.00% |           0      0.00%    100.00% |           0      0.00%    100.00%
system.ruby.L2Cache_Controller.MT_IB.WB_Data::total           18                      
system.ruby.L2Cache_Controller.MT_SB.L1_GETS |           0      0.00%      0.00% |           0      0.00%      0.00% |           0      0.00%      0.00% |           0      0.00%      0.00% |           0      0.00%      0.00% |           0      0.00%      0.00% |           0      0.00%      0.00% |           0      0.00%      0.00% |           0      0.00%      0.00% |           0      0.00%      0.00% |           0      0.00%      0.00% |           0      0.00%      0.00% |           0      0.00%      0.00% |           0      0.00%      0.00% |           0      0.00%      0.00% |           0      0.00%      0.00% |           0      0.00%      0.00% |           2    100.00%    100.00% |           0      0.00%    100.00% |           0      0.00%    100.00% |           0      0.00%    100.00% |           0      0.00%    100.00% |           0      0.00%    100.00% |           0      0.00%    100.00% |           0      0.00%    100.00% |           0      0.00%    100.00% |           0      0.00%    100.00% |           0      0.00%    100.00% |           0      0.00%    100.00% |           0      0.00%    100.00% |           0      0.00%    100.00% |           0      0.00%    100.00%
system.ruby.L2Cache_Controller.MT_SB.L1_GETS::total            2                      
system.ruby.L2Cache_Controller.MT_SB.Unblock |         829     18.14%     18.14% |         126      2.76%     20.90% |         120      2.63%     23.53% |         111      2.43%     25.96% |         120      2.63%     28.58% |         120      2.63%     31.21% |         120      2.63%     33.84% |         120      2.63%     36.46% |         120      2.63%     39.09% |         120      2.63%     41.72% |         119      2.60%     44.32% |         118      2.58%     46.90% |         124      2.71%     49.62% |         120      2.63%     52.24% |         121      2.65%     54.89% |         120      2.63%     57.52% |         121      2.65%     60.17% |         126      2.76%     62.92% |         126      2.76%     65.68% |         124      2.71%     68.40% |         120      2.63%     71.02% |         120      2.63%     73.65% |         122      2.67%     76.32% |         120      2.63%     78.95% |         121      2.65%     81.59% |         120      2.63%     84.22% |         120      2.63%     86.85% |         120      2.63%     89.47% |         121      2.65%     92.12% |         120      2.63%     94.75% |         120      2.63%     97.37% |         120      2.63%    100.00%
system.ruby.L2Cache_Controller.MT_SB.Unblock::total         4569                      
system.ruby.SimicsNetworkPortInterface_Controller.MessageSend |       74230      4.38%      4.38% |      847982     50.00%     54.38% |       33760      1.99%     56.37% |       28201      1.66%     58.03% |       24677      1.46%     59.49% |       26251      1.55%     61.03% |       31647      1.87%     62.90% |       31965      1.88%     64.78% |       23554      1.39%     66.17% |       23978      1.41%     67.59% |       23642      1.39%     68.98% |       23927      1.41%     70.39% |       24385      1.44%     71.83% |       23734      1.40%     73.23% |       23430      1.38%     74.61% |       26240      1.55%     76.16% |       31695      1.87%     78.03% |       33592      1.98%     80.01% |       23872      1.41%     81.41% |       26273      1.55%     82.96% |       23455      1.38%     84.35% |       23410      1.38%     85.73% |       23255      1.37%     87.10% |       23187      1.37%     88.47% |       23449      1.38%     89.85% |       23599      1.39%     91.24% |       23601      1.39%     92.63% |       23421      1.38%     94.01% |       23816      1.40%     95.42% |       24263      1.43%     96.85% |       23675      1.40%     98.24% |       29798      1.76%    100.00%
system.ruby.SimicsNetworkPortInterface_Controller.MessageSend::total      1695964                      
system.ruby.SimicsNetworkPortInterface_Controller.MessageRecv |       74230      4.38%      4.38% |      847982     50.00%     54.38% |       33760      1.99%     56.37% |       28201      1.66%     58.03% |       24677      1.46%     59.49% |       26251      1.55%     61.03% |       31647      1.87%     62.90% |       31965      1.88%     64.78% |       23554      1.39%     66.17% |       23978      1.41%     67.59% |       23642      1.39%     68.98% |       23927      1.41%     70.39% |       24385      1.44%     71.83% |       23734      1.40%     73.23% |       23430      1.38%     74.61% |       26240      1.55%     76.16% |       31695      1.87%     78.03% |       33592      1.98%     80.01% |       23872      1.41%     81.41% |       26273      1.55%     82.96% |       23455      1.38%     84.35% |       23410      1.38%     85.73% |       23255      1.37%     87.10% |       23187      1.37%     88.47% |       23449      1.38%     89.85% |       23599      1.39%     91.24% |       23601      1.39%     92.63% |       23421      1.38%     94.01% |       23816      1.40%     95.42% |       24263      1.43%     96.85% |       23675      1.40%     98.24% |       29798      1.76%    100.00%
system.ruby.SimicsNetworkPortInterface_Controller.MessageRecv::total      1695964                      
system.ruby.SimicsNetworkPortInterface_Controller.A.MessageSend |       74230      4.38%      4.38% |      847982     50.00%     54.38% |       33760      1.99%     56.37% |       28201      1.66%     58.03% |       24677      1.46%     59.49% |       26251      1.55%     61.03% |       31647      1.87%     62.90% |       31965      1.88%     64.78% |       23554      1.39%     66.17% |       23978      1.41%     67.59% |       23642      1.39%     68.98% |       23927      1.41%     70.39% |       24385      1.44%     71.83% |       23734      1.40%     73.23% |       23430      1.38%     74.61% |       26240      1.55%     76.16% |       31695      1.87%     78.03% |       33592      1.98%     80.01% |       23872      1.41%     81.41% |       26273      1.55%     82.96% |       23455      1.38%     84.35% |       23410      1.38%     85.73% |       23255      1.37%     87.10% |       23187      1.37%     88.47% |       23449      1.38%     89.85% |       23599      1.39%     91.24% |       23601      1.39%     92.63% |       23421      1.38%     94.01% |       23816      1.40%     95.42% |       24263      1.43%     96.85% |       23675      1.40%     98.24% |       29798      1.76%    100.00%
system.ruby.SimicsNetworkPortInterface_Controller.A.MessageSend::total      1695964                      
system.ruby.SimicsNetworkPortInterface_Controller.A.MessageRecv |       74230      4.38%      4.38% |      847982     50.00%     54.38% |       33760      1.99%     56.37% |       28201      1.66%     58.03% |       24677      1.46%     59.49% |       26251      1.55%     61.03% |       31647      1.87%     62.90% |       31965      1.88%     64.78% |       23554      1.39%     66.17% |       23978      1.41%     67.59% |       23642      1.39%     68.98% |       23927      1.41%     70.39% |       24385      1.44%     71.83% |       23734      1.40%     73.23% |       23430      1.38%     74.61% |       26240      1.55%     76.16% |       31695      1.87%     78.03% |       33592      1.98%     80.01% |       23872      1.41%     81.41% |       26273      1.55%     82.96% |       23455      1.38%     84.35% |       23410      1.38%     85.73% |       23255      1.37%     87.10% |       23187      1.37%     88.47% |       23449      1.38%     89.85% |       23599      1.39%     91.24% |       23601      1.39%     92.63% |       23421      1.38%     94.01% |       23816      1.40%     95.42% |       24263      1.43%     96.85% |       23675      1.40%     98.24% |       29798      1.76%    100.00%
system.ruby.SimicsNetworkPortInterface_Controller.A.MessageRecv::total      1695964                      
system.switch_cpus.kern.inst.arm                    0                       # number of arm instructions executed
system.switch_cpus.kern.inst.quiesce                0                       # number of quiesce instructions executed

---------- End Simulation Statistics   ----------
