
---------- Begin Simulation Statistics ----------
sim_seconds                                  0.057157                       # Number of seconds simulated
sim_ticks                                 57156684500                       # Number of ticks simulated
final_tick                               5233324763000                       # Number of ticks from beginning of simulation (restored from checkpoints and never reset)
sim_freq                                 1000000000000                       # Frequency of simulated ticks
host_inst_rate                                  61224                       # Simulator instruction rate (inst/s)
host_op_rate                                   108258                       # Simulator op (including micro ops) rate (op/s)
host_tick_rate                              151008630                       # Simulator tick rate (ticks/s)
host_mem_usage                                4341468                       # Number of bytes of host memory used
host_seconds                                   378.50                       # Real time elapsed on the host
sim_insts                                    23173418                       # Number of instructions simulated
sim_ops                                      40975521                       # Number of ops (including micro ops) simulated
system.voltage_domain.voltage                       1                       # Voltage in Volts
system.clk_domain.clock                           500                       # Clock period in ticks
system.mem_ctrls0.bytes_read::ruby.dir_cntrl0     12632768                       # Number of bytes read from this memory
system.mem_ctrls0.bytes_read::total          12632768                       # Number of bytes read from this memory
system.mem_ctrls0.bytes_written::ruby.dir_cntrl0      8049344                       # Number of bytes written to this memory
system.mem_ctrls0.bytes_written::total        8049344                       # Number of bytes written to this memory
system.mem_ctrls0.num_reads::ruby.dir_cntrl0       197387                       # Number of read requests responded to by this memory
system.mem_ctrls0.num_reads::total             197387                       # Number of read requests responded to by this memory
system.mem_ctrls0.num_writes::ruby.dir_cntrl0       125771                       # Number of write requests responded to by this memory
system.mem_ctrls0.num_writes::total            125771                       # Number of write requests responded to by this memory
system.mem_ctrls0.bw_read::ruby.dir_cntrl0    221019958                       # Total read bandwidth from this memory (bytes/s)
system.mem_ctrls0.bw_read::total            221019958                       # Total read bandwidth from this memory (bytes/s)
system.mem_ctrls0.bw_write::ruby.dir_cntrl0    140829442                       # Write bandwidth from this memory (bytes/s)
system.mem_ctrls0.bw_write::total           140829442                       # Write bandwidth from this memory (bytes/s)
system.mem_ctrls0.bw_total::ruby.dir_cntrl0    361849400                       # Total bandwidth to/from this memory (bytes/s)
system.mem_ctrls0.bw_total::total           361849400                       # Total bandwidth to/from this memory (bytes/s)
system.mem_ctrls0.readReqs                     197387                       # Number of read requests accepted
system.mem_ctrls0.writeReqs                    125771                       # Number of write requests accepted
system.mem_ctrls0.readBursts                   197387                       # Number of DRAM read bursts, including those serviced by the write queue
system.mem_ctrls0.writeBursts                  125771                       # Number of DRAM write bursts, including those merged in the write queue
system.mem_ctrls0.bytesReadDRAM              12630528                       # Total number of bytes read from DRAM
system.mem_ctrls0.bytesReadWrQ                   2240                       # Total number of bytes read from write queue
system.mem_ctrls0.bytesWritten                8049088                       # Total number of bytes written to DRAM
system.mem_ctrls0.bytesReadSys               12632768                       # Total read bytes from the system interface side
system.mem_ctrls0.bytesWrittenSys             8049344                       # Total written bytes from the system interface side
system.mem_ctrls0.servicedByWrQ                    35                       # Number of DRAM read bursts serviced by the write queue
system.mem_ctrls0.mergedWrBursts                    0                       # Number of DRAM write bursts merged with an existing one
system.mem_ctrls0.neitherReadNorWriteReqs            0                       # Number of requests that are neither read nor write
system.mem_ctrls0.perBankRdBursts::0            12097                       # Per bank write bursts
system.mem_ctrls0.perBankRdBursts::1            12208                       # Per bank write bursts
system.mem_ctrls0.perBankRdBursts::2            12072                       # Per bank write bursts
system.mem_ctrls0.perBankRdBursts::3            12425                       # Per bank write bursts
system.mem_ctrls0.perBankRdBursts::4            12209                       # Per bank write bursts
system.mem_ctrls0.perBankRdBursts::5            12289                       # Per bank write bursts
system.mem_ctrls0.perBankRdBursts::6            12503                       # Per bank write bursts
system.mem_ctrls0.perBankRdBursts::7            12668                       # Per bank write bursts
system.mem_ctrls0.perBankRdBursts::8            12428                       # Per bank write bursts
system.mem_ctrls0.perBankRdBursts::9            12784                       # Per bank write bursts
system.mem_ctrls0.perBankRdBursts::10           12405                       # Per bank write bursts
system.mem_ctrls0.perBankRdBursts::11           12730                       # Per bank write bursts
system.mem_ctrls0.perBankRdBursts::12           12277                       # Per bank write bursts
system.mem_ctrls0.perBankRdBursts::13           12035                       # Per bank write bursts
system.mem_ctrls0.perBankRdBursts::14           12306                       # Per bank write bursts
system.mem_ctrls0.perBankRdBursts::15           11916                       # Per bank write bursts
system.mem_ctrls0.perBankWrBursts::0             7803                       # Per bank write bursts
system.mem_ctrls0.perBankWrBursts::1             7650                       # Per bank write bursts
system.mem_ctrls0.perBankWrBursts::2             7819                       # Per bank write bursts
system.mem_ctrls0.perBankWrBursts::3             7842                       # Per bank write bursts
system.mem_ctrls0.perBankWrBursts::4             7811                       # Per bank write bursts
system.mem_ctrls0.perBankWrBursts::5             7901                       # Per bank write bursts
system.mem_ctrls0.perBankWrBursts::6             7996                       # Per bank write bursts
system.mem_ctrls0.perBankWrBursts::7             8027                       # Per bank write bursts
system.mem_ctrls0.perBankWrBursts::8             7938                       # Per bank write bursts
system.mem_ctrls0.perBankWrBursts::9             8083                       # Per bank write bursts
system.mem_ctrls0.perBankWrBursts::10            7891                       # Per bank write bursts
system.mem_ctrls0.perBankWrBursts::11            7926                       # Per bank write bursts
system.mem_ctrls0.perBankWrBursts::12            7763                       # Per bank write bursts
system.mem_ctrls0.perBankWrBursts::13            7815                       # Per bank write bursts
system.mem_ctrls0.perBankWrBursts::14            7875                       # Per bank write bursts
system.mem_ctrls0.perBankWrBursts::15            7627                       # Per bank write bursts
system.mem_ctrls0.numRdRetry                    16338                       # Number of times read queue was full causing retry
system.mem_ctrls0.numWrRetry                     5514                       # Number of times write queue was full causing retry
system.mem_ctrls0.totGap                  57156192500                       # Total gap between requests
system.mem_ctrls0.readPktSize::0                    0                       # Read request sizes (log2)
system.mem_ctrls0.readPktSize::1                    0                       # Read request sizes (log2)
system.mem_ctrls0.readPktSize::2                    0                       # Read request sizes (log2)
system.mem_ctrls0.readPktSize::3                    0                       # Read request sizes (log2)
system.mem_ctrls0.readPktSize::4                    0                       # Read request sizes (log2)
system.mem_ctrls0.readPktSize::5                    0                       # Read request sizes (log2)
system.mem_ctrls0.readPktSize::6               197387                       # Read request sizes (log2)
system.mem_ctrls0.writePktSize::0                   0                       # Write request sizes (log2)
system.mem_ctrls0.writePktSize::1                   0                       # Write request sizes (log2)
system.mem_ctrls0.writePktSize::2                   0                       # Write request sizes (log2)
system.mem_ctrls0.writePktSize::3                   0                       # Write request sizes (log2)
system.mem_ctrls0.writePktSize::4                   0                       # Write request sizes (log2)
system.mem_ctrls0.writePktSize::5                   0                       # Write request sizes (log2)
system.mem_ctrls0.writePktSize::6              125771                       # Write request sizes (log2)
system.mem_ctrls0.rdQLenPdf::0                  74487                       # What read queue length does an incoming req see
system.mem_ctrls0.rdQLenPdf::1                   9536                       # What read queue length does an incoming req see
system.mem_ctrls0.rdQLenPdf::2                   8092                       # What read queue length does an incoming req see
system.mem_ctrls0.rdQLenPdf::3                   7329                       # What read queue length does an incoming req see
system.mem_ctrls0.rdQLenPdf::4                   7002                       # What read queue length does an incoming req see
system.mem_ctrls0.rdQLenPdf::5                   6741                       # What read queue length does an incoming req see
system.mem_ctrls0.rdQLenPdf::6                   6552                       # What read queue length does an incoming req see
system.mem_ctrls0.rdQLenPdf::7                   5968                       # What read queue length does an incoming req see
system.mem_ctrls0.rdQLenPdf::8                   5569                       # What read queue length does an incoming req see
system.mem_ctrls0.rdQLenPdf::9                   4869                       # What read queue length does an incoming req see
system.mem_ctrls0.rdQLenPdf::10                  4304                       # What read queue length does an incoming req see
system.mem_ctrls0.rdQLenPdf::11                  3990                       # What read queue length does an incoming req see
system.mem_ctrls0.rdQLenPdf::12                  3710                       # What read queue length does an incoming req see
system.mem_ctrls0.rdQLenPdf::13                  3382                       # What read queue length does an incoming req see
system.mem_ctrls0.rdQLenPdf::14                  3011                       # What read queue length does an incoming req see
system.mem_ctrls0.rdQLenPdf::15                  2736                       # What read queue length does an incoming req see
system.mem_ctrls0.rdQLenPdf::16                  2384                       # What read queue length does an incoming req see
system.mem_ctrls0.rdQLenPdf::17                  2177                       # What read queue length does an incoming req see
system.mem_ctrls0.rdQLenPdf::18                  2048                       # What read queue length does an incoming req see
system.mem_ctrls0.rdQLenPdf::19                  1851                       # What read queue length does an incoming req see
system.mem_ctrls0.rdQLenPdf::20                  1756                       # What read queue length does an incoming req see
system.mem_ctrls0.rdQLenPdf::21                  1483                       # What read queue length does an incoming req see
system.mem_ctrls0.rdQLenPdf::22                  1394                       # What read queue length does an incoming req see
system.mem_ctrls0.rdQLenPdf::23                  1287                       # What read queue length does an incoming req see
system.mem_ctrls0.rdQLenPdf::24                  1258                       # What read queue length does an incoming req see
system.mem_ctrls0.rdQLenPdf::25                  1222                       # What read queue length does an incoming req see
system.mem_ctrls0.rdQLenPdf::26                  1102                       # What read queue length does an incoming req see
system.mem_ctrls0.rdQLenPdf::27                  1105                       # What read queue length does an incoming req see
system.mem_ctrls0.rdQLenPdf::28                  1076                       # What read queue length does an incoming req see
system.mem_ctrls0.rdQLenPdf::29                  1018                       # What read queue length does an incoming req see
system.mem_ctrls0.rdQLenPdf::30                  1107                       # What read queue length does an incoming req see
system.mem_ctrls0.rdQLenPdf::31                 17806                       # What read queue length does an incoming req see
system.mem_ctrls0.wrQLenPdf::0                  18033                       # What write queue length does an incoming req see
system.mem_ctrls0.wrQLenPdf::1                  20430                       # What write queue length does an incoming req see
system.mem_ctrls0.wrQLenPdf::2                  21249                       # What write queue length does an incoming req see
system.mem_ctrls0.wrQLenPdf::3                  21237                       # What write queue length does an incoming req see
system.mem_ctrls0.wrQLenPdf::4                  21416                       # What write queue length does an incoming req see
system.mem_ctrls0.wrQLenPdf::5                   6442                       # What write queue length does an incoming req see
system.mem_ctrls0.wrQLenPdf::6                   6432                       # What write queue length does an incoming req see
system.mem_ctrls0.wrQLenPdf::7                  10532                       # What write queue length does an incoming req see
system.mem_ctrls0.bytesPerActivate::samples        83593                       # Bytes accessed per row activation
system.mem_ctrls0.bytesPerActivate::mean   247.363870                       # Bytes accessed per row activation
system.mem_ctrls0.bytesPerActivate::gmean   175.176624                       # Bytes accessed per row activation
system.mem_ctrls0.bytesPerActivate::stdev   223.674251                       # Bytes accessed per row activation
system.mem_ctrls0.bytesPerActivate::0-127        25652     30.69%     30.69% # Bytes accessed per row activation
system.mem_ctrls0.bytesPerActivate::128-255        22015     26.34%     57.02% # Bytes accessed per row activation
system.mem_ctrls0.bytesPerActivate::256-383        21537     25.76%     82.79% # Bytes accessed per row activation
system.mem_ctrls0.bytesPerActivate::384-511         4621      5.53%     88.31% # Bytes accessed per row activation
system.mem_ctrls0.bytesPerActivate::512-639         3503      4.19%     92.51% # Bytes accessed per row activation
system.mem_ctrls0.bytesPerActivate::640-767         1659      1.98%     94.49% # Bytes accessed per row activation
system.mem_ctrls0.bytesPerActivate::768-895         1109      1.33%     95.82% # Bytes accessed per row activation
system.mem_ctrls0.bytesPerActivate::896-1023          811      0.97%     96.79% # Bytes accessed per row activation
system.mem_ctrls0.bytesPerActivate::1024-1151         2686      3.21%    100.00% # Bytes accessed per row activation
system.mem_ctrls0.bytesPerActivate::total        83593                       # Bytes accessed per row activation
system.mem_ctrls0.rdPerTurnAround::samples        18801                       # Reads before turning the bus around for writes
system.mem_ctrls0.rdPerTurnAround::mean     10.496357                       # Reads before turning the bus around for writes
system.mem_ctrls0.rdPerTurnAround::stdev    30.960271                       # Reads before turning the bus around for writes
system.mem_ctrls0.rdPerTurnAround::0-127        18792     99.95%     99.95% # Reads before turning the bus around for writes
system.mem_ctrls0.rdPerTurnAround::128-255            8      0.04%     99.99% # Reads before turning the bus around for writes
system.mem_ctrls0.rdPerTurnAround::3968-4095            1      0.01%    100.00% # Reads before turning the bus around for writes
system.mem_ctrls0.rdPerTurnAround::total        18801                       # Reads before turning the bus around for writes
system.mem_ctrls0.wrPerTurnAround::samples        18801                       # Writes before turning the bus around for reads
system.mem_ctrls0.wrPerTurnAround::mean      6.689378                       # Writes before turning the bus around for reads
system.mem_ctrls0.wrPerTurnAround::gmean     6.161533                       # Writes before turning the bus around for reads
system.mem_ctrls0.wrPerTurnAround::stdev     3.246143                       # Writes before turning the bus around for reads
system.mem_ctrls0.wrPerTurnAround::4-7          14693     78.15%     78.15% # Writes before turning the bus around for reads
system.mem_ctrls0.wrPerTurnAround::8-11          1890     10.05%     88.20% # Writes before turning the bus around for reads
system.mem_ctrls0.wrPerTurnAround::12-15         1142      6.07%     94.28% # Writes before turning the bus around for reads
system.mem_ctrls0.wrPerTurnAround::16-19         1076      5.72%    100.00% # Writes before turning the bus around for reads
system.mem_ctrls0.wrPerTurnAround::total        18801                       # Writes before turning the bus around for reads
system.mem_ctrls0.totQLat                 19223564137                       # Total ticks spent queuing
system.mem_ctrls0.totMemAccLat            22923914137                       # Total ticks spent from burst creation until serviced by the DRAM
system.mem_ctrls0.totBusLat                 986760000                       # Total ticks spent in databus transfers
system.mem_ctrls0.avgQLat                    97407.50                       # Average queueing delay per DRAM burst
system.mem_ctrls0.avgBusLat                   5000.00                       # Average bus latency per DRAM burst
system.mem_ctrls0.avgMemAccLat              116157.50                       # Average memory access latency per DRAM burst
system.mem_ctrls0.avgRdBW                      220.98                       # Average DRAM read bandwidth in MiByte/s
system.mem_ctrls0.avgWrBW                      140.82                       # Average achieved write bandwidth in MiByte/s
system.mem_ctrls0.avgRdBWSys                   221.02                       # Average system read bandwidth in MiByte/s
system.mem_ctrls0.avgWrBWSys                   140.83                       # Average system write bandwidth in MiByte/s
system.mem_ctrls0.peakBW                     12800.00                       # Theoretical peak bandwidth in MiByte/s
system.mem_ctrls0.busUtil                        2.83                       # Data bus utilization in percentage
system.mem_ctrls0.busUtilRead                    1.73                       # Data bus utilization in percentage for reads
system.mem_ctrls0.busUtilWrite                   1.10                       # Data bus utilization in percentage for writes
system.mem_ctrls0.avgRdQLen                      1.38                       # Average read queue length when enqueuing
system.mem_ctrls0.avgWrQLen                      2.92                       # Average write queue length when enqueuing
system.mem_ctrls0.readRowHits                  154026                       # Number of row buffer hits during reads
system.mem_ctrls0.writeRowHits                  85488                       # Number of row buffer hits during writes
system.mem_ctrls0.readRowHitRate                78.05                       # Row buffer hit rate for reads
system.mem_ctrls0.writeRowHitRate               67.97                       # Row buffer hit rate for writes
system.mem_ctrls0.avgGap                    176867.64                       # Average gap between requests
system.mem_ctrls0.pageHitRate                   74.12                       # Row buffer hit rate, read and write combined
system.mem_ctrls0.memoryStateTime::IDLE   11628258750                       # Time in different power states
system.mem_ctrls0.memoryStateTime::REF     1908400000                       # Time in different power states
system.mem_ctrls0.memoryStateTime::PRE_PDN            0                       # Time in different power states
system.mem_ctrls0.memoryStateTime::ACT    43614690000                       # Time in different power states
system.mem_ctrls0.memoryStateTime::ACT_PDN            0                       # Time in different power states
system.mem_ctrls0.actEnergy::0              317935800                       # Energy for activate commands per rank (pJ)
system.mem_ctrls0.actEnergy::1              313966800                       # Energy for activate commands per rank (pJ)
system.mem_ctrls0.preEnergy::0              173476875                       # Energy for precharge commands per rank (pJ)
system.mem_ctrls0.preEnergy::1              171311250                       # Energy for precharge commands per rank (pJ)
system.mem_ctrls0.readEnergy::0             767941200                       # Energy for read commands per rank (pJ)
system.mem_ctrls0.readEnergy::1             770920800                       # Energy for read commands per rank (pJ)
system.mem_ctrls0.writeEnergy::0            407229120                       # Energy for write commands per rank (pJ)
system.mem_ctrls0.writeEnergy::1            407708640                       # Energy for write commands per rank (pJ)
system.mem_ctrls0.refreshEnergy::0         3732830400                       # Energy for refresh commands per rank (pJ)
system.mem_ctrls0.refreshEnergy::1         3732830400                       # Energy for refresh commands per rank (pJ)
system.mem_ctrls0.actBackEnergy::0        22595942565                       # Energy for active background per rank (pJ)
system.mem_ctrls0.actBackEnergy::1        22073804325                       # Energy for active background per rank (pJ)
system.mem_ctrls0.preBackEnergy::0        14469798750                       # Energy for precharge background per rank (pJ)
system.mem_ctrls0.preBackEnergy::1        14927814750                       # Energy for precharge background per rank (pJ)
system.mem_ctrls0.totalEnergy::0          42465154710                       # Total energy per rank (pJ)
system.mem_ctrls0.totalEnergy::1          42398356965                       # Total energy per rank (pJ)
system.mem_ctrls0.averagePower::0          743.029970                       # Core power per rank (mW)
system.mem_ctrls0.averagePower::1          741.861183                       # Core power per rank (mW)
system.mem_ctrls1.bytes_read::ruby.dir_cntrl1     12404992                       # Number of bytes read from this memory
system.mem_ctrls1.bytes_read::total          12404992                       # Number of bytes read from this memory
system.mem_ctrls1.bytes_written::ruby.dir_cntrl1      7831744                       # Number of bytes written to this memory
system.mem_ctrls1.bytes_written::total        7831744                       # Number of bytes written to this memory
system.mem_ctrls1.num_reads::ruby.dir_cntrl1       193828                       # Number of read requests responded to by this memory
system.mem_ctrls1.num_reads::total             193828                       # Number of read requests responded to by this memory
system.mem_ctrls1.num_writes::ruby.dir_cntrl1       122371                       # Number of write requests responded to by this memory
system.mem_ctrls1.num_writes::total            122371                       # Number of write requests responded to by this memory
system.mem_ctrls1.bw_read::ruby.dir_cntrl1    217034842                       # Total read bandwidth from this memory (bytes/s)
system.mem_ctrls1.bw_read::total            217034842                       # Total read bandwidth from this memory (bytes/s)
system.mem_ctrls1.bw_write::ruby.dir_cntrl1    137022363                       # Write bandwidth from this memory (bytes/s)
system.mem_ctrls1.bw_write::total           137022363                       # Write bandwidth from this memory (bytes/s)
system.mem_ctrls1.bw_total::ruby.dir_cntrl1    354057206                       # Total bandwidth to/from this memory (bytes/s)
system.mem_ctrls1.bw_total::total           354057206                       # Total bandwidth to/from this memory (bytes/s)
system.mem_ctrls1.readReqs                     193828                       # Number of read requests accepted
system.mem_ctrls1.writeReqs                    122371                       # Number of write requests accepted
system.mem_ctrls1.readBursts                   193828                       # Number of DRAM read bursts, including those serviced by the write queue
system.mem_ctrls1.writeBursts                  122371                       # Number of DRAM write bursts, including those merged in the write queue
system.mem_ctrls1.bytesReadDRAM              12402432                       # Total number of bytes read from DRAM
system.mem_ctrls1.bytesReadWrQ                   2560                       # Total number of bytes read from write queue
system.mem_ctrls1.bytesWritten                7831552                       # Total number of bytes written to DRAM
system.mem_ctrls1.bytesReadSys               12404992                       # Total read bytes from the system interface side
system.mem_ctrls1.bytesWrittenSys             7831744                       # Total written bytes from the system interface side
system.mem_ctrls1.servicedByWrQ                    40                       # Number of DRAM read bursts serviced by the write queue
system.mem_ctrls1.mergedWrBursts                    0                       # Number of DRAM write bursts merged with an existing one
system.mem_ctrls1.neitherReadNorWriteReqs            0                       # Number of requests that are neither read nor write
system.mem_ctrls1.perBankRdBursts::0            11885                       # Per bank write bursts
system.mem_ctrls1.perBankRdBursts::1            11985                       # Per bank write bursts
system.mem_ctrls1.perBankRdBursts::2            11842                       # Per bank write bursts
system.mem_ctrls1.perBankRdBursts::3            12186                       # Per bank write bursts
system.mem_ctrls1.perBankRdBursts::4            12004                       # Per bank write bursts
system.mem_ctrls1.perBankRdBursts::5            12101                       # Per bank write bursts
system.mem_ctrls1.perBankRdBursts::6            12318                       # Per bank write bursts
system.mem_ctrls1.perBankRdBursts::7            12458                       # Per bank write bursts
system.mem_ctrls1.perBankRdBursts::8            12190                       # Per bank write bursts
system.mem_ctrls1.perBankRdBursts::9            12552                       # Per bank write bursts
system.mem_ctrls1.perBankRdBursts::10           12171                       # Per bank write bursts
system.mem_ctrls1.perBankRdBursts::11           12541                       # Per bank write bursts
system.mem_ctrls1.perBankRdBursts::12           12048                       # Per bank write bursts
system.mem_ctrls1.perBankRdBursts::13           11805                       # Per bank write bursts
system.mem_ctrls1.perBankRdBursts::14           11985                       # Per bank write bursts
system.mem_ctrls1.perBankRdBursts::15           11717                       # Per bank write bursts
system.mem_ctrls1.perBankWrBursts::0             7601                       # Per bank write bursts
system.mem_ctrls1.perBankWrBursts::1             7459                       # Per bank write bursts
system.mem_ctrls1.perBankWrBursts::2             7616                       # Per bank write bursts
system.mem_ctrls1.perBankWrBursts::3             7630                       # Per bank write bursts
system.mem_ctrls1.perBankWrBursts::4             7611                       # Per bank write bursts
system.mem_ctrls1.perBankWrBursts::5             7702                       # Per bank write bursts
system.mem_ctrls1.perBankWrBursts::6             7774                       # Per bank write bursts
system.mem_ctrls1.perBankWrBursts::7             7807                       # Per bank write bursts
system.mem_ctrls1.perBankWrBursts::8             7725                       # Per bank write bursts
system.mem_ctrls1.perBankWrBursts::9             7868                       # Per bank write bursts
system.mem_ctrls1.perBankWrBursts::10            7674                       # Per bank write bursts
system.mem_ctrls1.perBankWrBursts::11            7716                       # Per bank write bursts
system.mem_ctrls1.perBankWrBursts::12            7553                       # Per bank write bursts
system.mem_ctrls1.perBankWrBursts::13            7599                       # Per bank write bursts
system.mem_ctrls1.perBankWrBursts::14            7604                       # Per bank write bursts
system.mem_ctrls1.perBankWrBursts::15            7429                       # Per bank write bursts
system.mem_ctrls1.numRdRetry                    13866                       # Number of times read queue was full causing retry
system.mem_ctrls1.numWrRetry                     4863                       # Number of times write queue was full causing retry
system.mem_ctrls1.totGap                  57155914500                       # Total gap between requests
system.mem_ctrls1.readPktSize::0                    0                       # Read request sizes (log2)
system.mem_ctrls1.readPktSize::1                    0                       # Read request sizes (log2)
system.mem_ctrls1.readPktSize::2                    0                       # Read request sizes (log2)
system.mem_ctrls1.readPktSize::3                    0                       # Read request sizes (log2)
system.mem_ctrls1.readPktSize::4                    0                       # Read request sizes (log2)
system.mem_ctrls1.readPktSize::5                    0                       # Read request sizes (log2)
system.mem_ctrls1.readPktSize::6               193828                       # Read request sizes (log2)
system.mem_ctrls1.writePktSize::0                   0                       # Write request sizes (log2)
system.mem_ctrls1.writePktSize::1                   0                       # Write request sizes (log2)
system.mem_ctrls1.writePktSize::2                   0                       # Write request sizes (log2)
system.mem_ctrls1.writePktSize::3                   0                       # Write request sizes (log2)
system.mem_ctrls1.writePktSize::4                   0                       # Write request sizes (log2)
system.mem_ctrls1.writePktSize::5                   0                       # Write request sizes (log2)
system.mem_ctrls1.writePktSize::6              122371                       # Write request sizes (log2)
system.mem_ctrls1.rdQLenPdf::0                  73304                       # What read queue length does an incoming req see
system.mem_ctrls1.rdQLenPdf::1                   8406                       # What read queue length does an incoming req see
system.mem_ctrls1.rdQLenPdf::2                   7852                       # What read queue length does an incoming req see
system.mem_ctrls1.rdQLenPdf::3                   7638                       # What read queue length does an incoming req see
system.mem_ctrls1.rdQLenPdf::4                   7389                       # What read queue length does an incoming req see
system.mem_ctrls1.rdQLenPdf::5                   6903                       # What read queue length does an incoming req see
system.mem_ctrls1.rdQLenPdf::6                   6413                       # What read queue length does an incoming req see
system.mem_ctrls1.rdQLenPdf::7                   6052                       # What read queue length does an incoming req see
system.mem_ctrls1.rdQLenPdf::8                   5507                       # What read queue length does an incoming req see
system.mem_ctrls1.rdQLenPdf::9                   5054                       # What read queue length does an incoming req see
system.mem_ctrls1.rdQLenPdf::10                  4531                       # What read queue length does an incoming req see
system.mem_ctrls1.rdQLenPdf::11                  4068                       # What read queue length does an incoming req see
system.mem_ctrls1.rdQLenPdf::12                  3690                       # What read queue length does an incoming req see
system.mem_ctrls1.rdQLenPdf::13                  3292                       # What read queue length does an incoming req see
system.mem_ctrls1.rdQLenPdf::14                  2922                       # What read queue length does an incoming req see
system.mem_ctrls1.rdQLenPdf::15                  2722                       # What read queue length does an incoming req see
system.mem_ctrls1.rdQLenPdf::16                  2496                       # What read queue length does an incoming req see
system.mem_ctrls1.rdQLenPdf::17                  2333                       # What read queue length does an incoming req see
system.mem_ctrls1.rdQLenPdf::18                  2123                       # What read queue length does an incoming req see
system.mem_ctrls1.rdQLenPdf::19                  1854                       # What read queue length does an incoming req see
system.mem_ctrls1.rdQLenPdf::20                  1751                       # What read queue length does an incoming req see
system.mem_ctrls1.rdQLenPdf::21                  1641                       # What read queue length does an incoming req see
system.mem_ctrls1.rdQLenPdf::22                  1493                       # What read queue length does an incoming req see
system.mem_ctrls1.rdQLenPdf::23                  1389                       # What read queue length does an incoming req see
system.mem_ctrls1.rdQLenPdf::24                  1249                       # What read queue length does an incoming req see
system.mem_ctrls1.rdQLenPdf::25                  1190                       # What read queue length does an incoming req see
system.mem_ctrls1.rdQLenPdf::26                  1141                       # What read queue length does an incoming req see
system.mem_ctrls1.rdQLenPdf::27                  1022                       # What read queue length does an incoming req see
system.mem_ctrls1.rdQLenPdf::28                  1041                       # What read queue length does an incoming req see
system.mem_ctrls1.rdQLenPdf::29                  1030                       # What read queue length does an incoming req see
system.mem_ctrls1.rdQLenPdf::30                  1048                       # What read queue length does an incoming req see
system.mem_ctrls1.rdQLenPdf::31                 15244                       # What read queue length does an incoming req see
system.mem_ctrls1.wrQLenPdf::0                  17622                       # What write queue length does an incoming req see
system.mem_ctrls1.wrQLenPdf::1                  19745                       # What write queue length does an incoming req see
system.mem_ctrls1.wrQLenPdf::2                  20702                       # What write queue length does an incoming req see
system.mem_ctrls1.wrQLenPdf::3                  20857                       # What write queue length does an incoming req see
system.mem_ctrls1.wrQLenPdf::4                  20996                       # What write queue length does an incoming req see
system.mem_ctrls1.wrQLenPdf::5                   6456                       # What write queue length does an incoming req see
system.mem_ctrls1.wrQLenPdf::6                   6412                       # What write queue length does an incoming req see
system.mem_ctrls1.wrQLenPdf::7                   9581                       # What write queue length does an incoming req see
system.mem_ctrls1.bytesPerActivate::samples        76455                       # Bytes accessed per row activation
system.mem_ctrls1.bytesPerActivate::mean   264.638807                       # Bytes accessed per row activation
system.mem_ctrls1.bytesPerActivate::gmean   191.109829                       # Bytes accessed per row activation
system.mem_ctrls1.bytesPerActivate::stdev   228.274079                       # Bytes accessed per row activation
system.mem_ctrls1.bytesPerActivate::0-127        19504     25.51%     25.51% # Bytes accessed per row activation
system.mem_ctrls1.bytesPerActivate::128-255        20790     27.19%     52.70% # Bytes accessed per row activation
system.mem_ctrls1.bytesPerActivate::256-383        21676     28.35%     81.05% # Bytes accessed per row activation
system.mem_ctrls1.bytesPerActivate::384-511         4551      5.95%     87.01% # Bytes accessed per row activation
system.mem_ctrls1.bytesPerActivate::512-639         3730      4.88%     91.89% # Bytes accessed per row activation
system.mem_ctrls1.bytesPerActivate::640-767         1511      1.98%     93.86% # Bytes accessed per row activation
system.mem_ctrls1.bytesPerActivate::768-895         1120      1.46%     95.33% # Bytes accessed per row activation
system.mem_ctrls1.bytesPerActivate::896-1023          794      1.04%     96.37% # Bytes accessed per row activation
system.mem_ctrls1.bytesPerActivate::1024-1151         2779      3.63%    100.00% # Bytes accessed per row activation
system.mem_ctrls1.bytesPerActivate::total        76455                       # Bytes accessed per row activation
system.mem_ctrls1.rdPerTurnAround::samples        18313                       # Reads before turning the bus around for writes
system.mem_ctrls1.rdPerTurnAround::mean     10.581445                       # Reads before turning the bus around for writes
system.mem_ctrls1.rdPerTurnAround::stdev    25.461902                       # Reads before turning the bus around for writes
system.mem_ctrls1.rdPerTurnAround::0-127        18306     99.96%     99.96% # Reads before turning the bus around for writes
system.mem_ctrls1.rdPerTurnAround::128-255            5      0.03%     99.99% # Reads before turning the bus around for writes
system.mem_ctrls1.rdPerTurnAround::1152-1279            1      0.01%     99.99% # Reads before turning the bus around for writes
system.mem_ctrls1.rdPerTurnAround::2816-2943            1      0.01%    100.00% # Reads before turning the bus around for writes
system.mem_ctrls1.rdPerTurnAround::total        18313                       # Reads before turning the bus around for writes
system.mem_ctrls1.wrPerTurnAround::samples        18313                       # Writes before turning the bus around for reads
system.mem_ctrls1.wrPerTurnAround::mean      6.682029                       # Writes before turning the bus around for reads
system.mem_ctrls1.wrPerTurnAround::gmean     6.161959                       # Writes before turning the bus around for reads
system.mem_ctrls1.wrPerTurnAround::stdev     3.207658                       # Writes before turning the bus around for reads
system.mem_ctrls1.wrPerTurnAround::4-7          14207     77.58%     77.58% # Writes before turning the bus around for reads
system.mem_ctrls1.wrPerTurnAround::8-11          1973     10.77%     88.35% # Writes before turning the bus around for reads
system.mem_ctrls1.wrPerTurnAround::12-15         1176      6.42%     94.77% # Writes before turning the bus around for reads
system.mem_ctrls1.wrPerTurnAround::16-19          957      5.23%    100.00% # Writes before turning the bus around for reads
system.mem_ctrls1.wrPerTurnAround::total        18313                       # Writes before turning the bus around for reads
system.mem_ctrls1.totQLat                 18153907903                       # Total ticks spent queuing
system.mem_ctrls1.totMemAccLat            21787432903                       # Total ticks spent from burst creation until serviced by the DRAM
system.mem_ctrls1.totBusLat                 968940000                       # Total ticks spent in databus transfers
system.mem_ctrls1.avgQLat                    93679.22                       # Average queueing delay per DRAM burst
system.mem_ctrls1.avgBusLat                   5000.00                       # Average bus latency per DRAM burst
system.mem_ctrls1.avgMemAccLat              112429.22                       # Average memory access latency per DRAM burst
system.mem_ctrls1.avgRdBW                      216.99                       # Average DRAM read bandwidth in MiByte/s
system.mem_ctrls1.avgWrBW                      137.02                       # Average achieved write bandwidth in MiByte/s
system.mem_ctrls1.avgRdBWSys                   217.03                       # Average system read bandwidth in MiByte/s
system.mem_ctrls1.avgWrBWSys                   137.02                       # Average system write bandwidth in MiByte/s
system.mem_ctrls1.peakBW                     12800.00                       # Theoretical peak bandwidth in MiByte/s
system.mem_ctrls1.busUtil                        2.77                       # Data bus utilization in percentage
system.mem_ctrls1.busUtilRead                    1.70                       # Data bus utilization in percentage for reads
system.mem_ctrls1.busUtilWrite                   1.07                       # Data bus utilization in percentage for writes
system.mem_ctrls1.avgRdQLen                      1.36                       # Average read queue length when enqueuing
system.mem_ctrls1.avgWrQLen                      2.96                       # Average write queue length when enqueuing
system.mem_ctrls1.readRowHits                  152936                       # Number of row buffer hits during reads
system.mem_ctrls1.writeRowHits                  86756                       # Number of row buffer hits during writes
system.mem_ctrls1.readRowHitRate                78.92                       # Row buffer hit rate for reads
system.mem_ctrls1.writeRowHitRate               70.90                       # Row buffer hit rate for writes
system.mem_ctrls1.avgGap                    180759.31                       # Average gap between requests
system.mem_ctrls1.pageHitRate                   75.81                       # Row buffer hit rate, read and write combined
system.mem_ctrls1.memoryStateTime::IDLE   11893204500                       # Time in different power states
system.mem_ctrls1.memoryStateTime::REF     1908400000                       # Time in different power states
system.mem_ctrls1.memoryStateTime::PRE_PDN            0                       # Time in different power states
system.mem_ctrls1.memoryStateTime::ACT    43349744250                       # Time in different power states
system.mem_ctrls1.memoryStateTime::ACT_PDN            0                       # Time in different power states
system.mem_ctrls1.actEnergy::0              291679920                       # Energy for activate commands per rank (pJ)
system.mem_ctrls1.actEnergy::1              286282080                       # Energy for activate commands per rank (pJ)
system.mem_ctrls1.preEnergy::0              159150750                       # Energy for precharge commands per rank (pJ)
system.mem_ctrls1.preEnergy::1              156205500                       # Energy for precharge commands per rank (pJ)
system.mem_ctrls1.readEnergy::0             754759200                       # Energy for read commands per rank (pJ)
system.mem_ctrls1.readEnergy::1             756327000                       # Energy for read commands per rank (pJ)
system.mem_ctrls1.writeEnergy::0            396550080                       # Energy for write commands per rank (pJ)
system.mem_ctrls1.writeEnergy::1            396362160                       # Energy for write commands per rank (pJ)
system.mem_ctrls1.refreshEnergy::0         3732830400                       # Energy for refresh commands per rank (pJ)
system.mem_ctrls1.refreshEnergy::1         3732830400                       # Energy for refresh commands per rank (pJ)
system.mem_ctrls1.actBackEnergy::0        22373182575                       # Energy for active background per rank (pJ)
system.mem_ctrls1.actBackEnergy::1        21815208720                       # Energy for active background per rank (pJ)
system.mem_ctrls1.preBackEnergy::0        14665202250                       # Energy for precharge background per rank (pJ)
system.mem_ctrls1.preBackEnergy::1        15154653000                       # Energy for precharge background per rank (pJ)
system.mem_ctrls1.totalEnergy::0          42373355175                       # Total energy per rank (pJ)
system.mem_ctrls1.totalEnergy::1          42297868860                       # Total energy per rank (pJ)
system.mem_ctrls1.averagePower::0          741.423716                       # Core power per rank (mW)
system.mem_ctrls1.averagePower::1          740.102902                       # Core power per rank (mW)
system.mem_ctrls2.bytes_read::ruby.dir_cntrl2     12405248                       # Number of bytes read from this memory
system.mem_ctrls2.bytes_read::total          12405248                       # Number of bytes read from this memory
system.mem_ctrls2.bytes_written::ruby.dir_cntrl2      7831872                       # Number of bytes written to this memory
system.mem_ctrls2.bytes_written::total        7831872                       # Number of bytes written to this memory
system.mem_ctrls2.num_reads::ruby.dir_cntrl2       193832                       # Number of read requests responded to by this memory
system.mem_ctrls2.num_reads::total             193832                       # Number of read requests responded to by this memory
system.mem_ctrls2.num_writes::ruby.dir_cntrl2       122373                       # Number of write requests responded to by this memory
system.mem_ctrls2.num_writes::total            122373                       # Number of write requests responded to by this memory
system.mem_ctrls2.bw_read::ruby.dir_cntrl2    217039321                       # Total read bandwidth from this memory (bytes/s)
system.mem_ctrls2.bw_read::total            217039321                       # Total read bandwidth from this memory (bytes/s)
system.mem_ctrls2.bw_write::ruby.dir_cntrl2    137024603                       # Write bandwidth from this memory (bytes/s)
system.mem_ctrls2.bw_write::total           137024603                       # Write bandwidth from this memory (bytes/s)
system.mem_ctrls2.bw_total::ruby.dir_cntrl2    354063924                       # Total bandwidth to/from this memory (bytes/s)
system.mem_ctrls2.bw_total::total           354063924                       # Total bandwidth to/from this memory (bytes/s)
system.mem_ctrls2.readReqs                     193832                       # Number of read requests accepted
system.mem_ctrls2.writeReqs                    122373                       # Number of write requests accepted
system.mem_ctrls2.readBursts                   193832                       # Number of DRAM read bursts, including those serviced by the write queue
system.mem_ctrls2.writeBursts                  122373                       # Number of DRAM write bursts, including those merged in the write queue
system.mem_ctrls2.bytesReadDRAM              12402816                       # Total number of bytes read from DRAM
system.mem_ctrls2.bytesReadWrQ                   2432                       # Total number of bytes read from write queue
system.mem_ctrls2.bytesWritten                7831808                       # Total number of bytes written to DRAM
system.mem_ctrls2.bytesReadSys               12405248                       # Total read bytes from the system interface side
system.mem_ctrls2.bytesWrittenSys             7831872                       # Total written bytes from the system interface side
system.mem_ctrls2.servicedByWrQ                    38                       # Number of DRAM read bursts serviced by the write queue
system.mem_ctrls2.mergedWrBursts                    0                       # Number of DRAM write bursts merged with an existing one
system.mem_ctrls2.neitherReadNorWriteReqs            0                       # Number of requests that are neither read nor write
system.mem_ctrls2.perBankRdBursts::0            11884                       # Per bank write bursts
system.mem_ctrls2.perBankRdBursts::1            12013                       # Per bank write bursts
system.mem_ctrls2.perBankRdBursts::2            11868                       # Per bank write bursts
system.mem_ctrls2.perBankRdBursts::3            12230                       # Per bank write bursts
system.mem_ctrls2.perBankRdBursts::4            12011                       # Per bank write bursts
system.mem_ctrls2.perBankRdBursts::5            12080                       # Per bank write bursts
system.mem_ctrls2.perBankRdBursts::6            12280                       # Per bank write bursts
system.mem_ctrls2.perBankRdBursts::7            12456                       # Per bank write bursts
system.mem_ctrls2.perBankRdBursts::8            12182                       # Per bank write bursts
system.mem_ctrls2.perBankRdBursts::9            12532                       # Per bank write bursts
system.mem_ctrls2.perBankRdBursts::10           12179                       # Per bank write bursts
system.mem_ctrls2.perBankRdBursts::11           12582                       # Per bank write bursts
system.mem_ctrls2.perBankRdBursts::12           12045                       # Per bank write bursts
system.mem_ctrls2.perBankRdBursts::13           11767                       # Per bank write bursts
system.mem_ctrls2.perBankRdBursts::14           11969                       # Per bank write bursts
system.mem_ctrls2.perBankRdBursts::15           11716                       # Per bank write bursts
system.mem_ctrls2.perBankWrBursts::0             7593                       # Per bank write bursts
system.mem_ctrls2.perBankWrBursts::1             7457                       # Per bank write bursts
system.mem_ctrls2.perBankWrBursts::2             7615                       # Per bank write bursts
system.mem_ctrls2.perBankWrBursts::3             7640                       # Per bank write bursts
system.mem_ctrls2.perBankWrBursts::4             7608                       # Per bank write bursts
system.mem_ctrls2.perBankWrBursts::5             7688                       # Per bank write bursts
system.mem_ctrls2.perBankWrBursts::6             7767                       # Per bank write bursts
system.mem_ctrls2.perBankWrBursts::7             7818                       # Per bank write bursts
system.mem_ctrls2.perBankWrBursts::8             7728                       # Per bank write bursts
system.mem_ctrls2.perBankWrBursts::9             7869                       # Per bank write bursts
system.mem_ctrls2.perBankWrBursts::10            7674                       # Per bank write bursts
system.mem_ctrls2.perBankWrBursts::11            7726                       # Per bank write bursts
system.mem_ctrls2.perBankWrBursts::12            7560                       # Per bank write bursts
system.mem_ctrls2.perBankWrBursts::13            7589                       # Per bank write bursts
system.mem_ctrls2.perBankWrBursts::14            7608                       # Per bank write bursts
system.mem_ctrls2.perBankWrBursts::15            7432                       # Per bank write bursts
system.mem_ctrls2.numRdRetry                    14083                       # Number of times read queue was full causing retry
system.mem_ctrls2.numWrRetry                     5114                       # Number of times write queue was full causing retry
system.mem_ctrls2.totGap                  57156542500                       # Total gap between requests
system.mem_ctrls2.readPktSize::0                    0                       # Read request sizes (log2)
system.mem_ctrls2.readPktSize::1                    0                       # Read request sizes (log2)
system.mem_ctrls2.readPktSize::2                    0                       # Read request sizes (log2)
system.mem_ctrls2.readPktSize::3                    0                       # Read request sizes (log2)
system.mem_ctrls2.readPktSize::4                    0                       # Read request sizes (log2)
system.mem_ctrls2.readPktSize::5                    0                       # Read request sizes (log2)
system.mem_ctrls2.readPktSize::6               193832                       # Read request sizes (log2)
system.mem_ctrls2.writePktSize::0                   0                       # Write request sizes (log2)
system.mem_ctrls2.writePktSize::1                   0                       # Write request sizes (log2)
system.mem_ctrls2.writePktSize::2                   0                       # Write request sizes (log2)
system.mem_ctrls2.writePktSize::3                   0                       # Write request sizes (log2)
system.mem_ctrls2.writePktSize::4                   0                       # Write request sizes (log2)
system.mem_ctrls2.writePktSize::5                   0                       # Write request sizes (log2)
system.mem_ctrls2.writePktSize::6              122373                       # Write request sizes (log2)
system.mem_ctrls2.rdQLenPdf::0                  73334                       # What read queue length does an incoming req see
system.mem_ctrls2.rdQLenPdf::1                   8118                       # What read queue length does an incoming req see
system.mem_ctrls2.rdQLenPdf::2                   7544                       # What read queue length does an incoming req see
system.mem_ctrls2.rdQLenPdf::3                   7495                       # What read queue length does an incoming req see
system.mem_ctrls2.rdQLenPdf::4                   7241                       # What read queue length does an incoming req see
system.mem_ctrls2.rdQLenPdf::5                   7092                       # What read queue length does an incoming req see
system.mem_ctrls2.rdQLenPdf::6                   6850                       # What read queue length does an incoming req see
system.mem_ctrls2.rdQLenPdf::7                   6364                       # What read queue length does an incoming req see
system.mem_ctrls2.rdQLenPdf::8                   5697                       # What read queue length does an incoming req see
system.mem_ctrls2.rdQLenPdf::9                   5037                       # What read queue length does an incoming req see
system.mem_ctrls2.rdQLenPdf::10                  4572                       # What read queue length does an incoming req see
system.mem_ctrls2.rdQLenPdf::11                  3986                       # What read queue length does an incoming req see
system.mem_ctrls2.rdQLenPdf::12                  3688                       # What read queue length does an incoming req see
system.mem_ctrls2.rdQLenPdf::13                  3357                       # What read queue length does an incoming req see
system.mem_ctrls2.rdQLenPdf::14                  3002                       # What read queue length does an incoming req see
system.mem_ctrls2.rdQLenPdf::15                  2837                       # What read queue length does an incoming req see
system.mem_ctrls2.rdQLenPdf::16                  2438                       # What read queue length does an incoming req see
system.mem_ctrls2.rdQLenPdf::17                  2212                       # What read queue length does an incoming req see
system.mem_ctrls2.rdQLenPdf::18                  2047                       # What read queue length does an incoming req see
system.mem_ctrls2.rdQLenPdf::19                  1827                       # What read queue length does an incoming req see
system.mem_ctrls2.rdQLenPdf::20                  1724                       # What read queue length does an incoming req see
system.mem_ctrls2.rdQLenPdf::21                  1510                       # What read queue length does an incoming req see
system.mem_ctrls2.rdQLenPdf::22                  1391                       # What read queue length does an incoming req see
system.mem_ctrls2.rdQLenPdf::23                  1313                       # What read queue length does an incoming req see
system.mem_ctrls2.rdQLenPdf::24                  1249                       # What read queue length does an incoming req see
system.mem_ctrls2.rdQLenPdf::25                  1142                       # What read queue length does an incoming req see
system.mem_ctrls2.rdQLenPdf::26                  1079                       # What read queue length does an incoming req see
system.mem_ctrls2.rdQLenPdf::27                  1141                       # What read queue length does an incoming req see
system.mem_ctrls2.rdQLenPdf::28                  1050                       # What read queue length does an incoming req see
system.mem_ctrls2.rdQLenPdf::29                  1007                       # What read queue length does an incoming req see
system.mem_ctrls2.rdQLenPdf::30                  1021                       # What read queue length does an incoming req see
system.mem_ctrls2.rdQLenPdf::31                 15429                       # What read queue length does an incoming req see
system.mem_ctrls2.wrQLenPdf::0                  17603                       # What write queue length does an incoming req see
system.mem_ctrls2.wrQLenPdf::1                  19802                       # What write queue length does an incoming req see
system.mem_ctrls2.wrQLenPdf::2                  20480                       # What write queue length does an incoming req see
system.mem_ctrls2.wrQLenPdf::3                  20773                       # What write queue length does an incoming req see
system.mem_ctrls2.wrQLenPdf::4                  20907                       # What write queue length does an incoming req see
system.mem_ctrls2.wrQLenPdf::5                   6455                       # What write queue length does an incoming req see
system.mem_ctrls2.wrQLenPdf::6                   6518                       # What write queue length does an incoming req see
system.mem_ctrls2.wrQLenPdf::7                   9835                       # What write queue length does an incoming req see
system.mem_ctrls2.bytesPerActivate::samples        76344                       # Bytes accessed per row activation
system.mem_ctrls2.bytesPerActivate::mean   265.035314                       # Bytes accessed per row activation
system.mem_ctrls2.bytesPerActivate::gmean   191.735318                       # Bytes accessed per row activation
system.mem_ctrls2.bytesPerActivate::stdev   227.926142                       # Bytes accessed per row activation
system.mem_ctrls2.bytesPerActivate::0-127        19253     25.22%     25.22% # Bytes accessed per row activation
system.mem_ctrls2.bytesPerActivate::128-255        20740     27.17%     52.39% # Bytes accessed per row activation
system.mem_ctrls2.bytesPerActivate::256-383        21978     28.79%     81.17% # Bytes accessed per row activation
system.mem_ctrls2.bytesPerActivate::384-511         4464      5.85%     87.02% # Bytes accessed per row activation
system.mem_ctrls2.bytesPerActivate::512-639         3651      4.78%     91.80% # Bytes accessed per row activation
system.mem_ctrls2.bytesPerActivate::640-767         1555      2.04%     93.84% # Bytes accessed per row activation
system.mem_ctrls2.bytesPerActivate::768-895         1163      1.52%     95.36% # Bytes accessed per row activation
system.mem_ctrls2.bytesPerActivate::896-1023          777      1.02%     96.38% # Bytes accessed per row activation
system.mem_ctrls2.bytesPerActivate::1024-1151         2763      3.62%    100.00% # Bytes accessed per row activation
system.mem_ctrls2.bytesPerActivate::total        76344                       # Bytes accessed per row activation
system.mem_ctrls2.rdPerTurnAround::samples        18297                       # Reads before turning the bus around for writes
system.mem_ctrls2.rdPerTurnAround::mean     10.591135                       # Reads before turning the bus around for writes
system.mem_ctrls2.rdPerTurnAround::stdev    25.486613                       # Reads before turning the bus around for writes
system.mem_ctrls2.rdPerTurnAround::0-127        18291     99.97%     99.97% # Reads before turning the bus around for writes
system.mem_ctrls2.rdPerTurnAround::128-255            4      0.02%     99.99% # Reads before turning the bus around for writes
system.mem_ctrls2.rdPerTurnAround::1152-1279            1      0.01%     99.99% # Reads before turning the bus around for writes
system.mem_ctrls2.rdPerTurnAround::2816-2943            1      0.01%    100.00% # Reads before turning the bus around for writes
system.mem_ctrls2.rdPerTurnAround::total        18297                       # Reads before turning the bus around for writes
system.mem_ctrls2.wrPerTurnAround::samples        18297                       # Writes before turning the bus around for reads
system.mem_ctrls2.wrPerTurnAround::mean      6.688091                       # Writes before turning the bus around for reads
system.mem_ctrls2.wrPerTurnAround::gmean     6.167728                       # Writes before turning the bus around for reads
system.mem_ctrls2.wrPerTurnAround::stdev     3.207352                       # Writes before turning the bus around for reads
system.mem_ctrls2.wrPerTurnAround::4-7          14154     77.36%     77.36% # Writes before turning the bus around for reads
system.mem_ctrls2.wrPerTurnAround::8-11          2054     11.23%     88.58% # Writes before turning the bus around for reads
system.mem_ctrls2.wrPerTurnAround::12-15         1114      6.09%     94.67% # Writes before turning the bus around for reads
system.mem_ctrls2.wrPerTurnAround::16-19          975      5.33%    100.00% # Writes before turning the bus around for reads
system.mem_ctrls2.wrPerTurnAround::total        18297                       # Writes before turning the bus around for reads
system.mem_ctrls2.totQLat                 18164097633                       # Total ticks spent queuing
system.mem_ctrls2.totMemAccLat            21797735133                       # Total ticks spent from burst creation until serviced by the DRAM
system.mem_ctrls2.totBusLat                 968970000                       # Total ticks spent in databus transfers
system.mem_ctrls2.avgQLat                    93728.90                       # Average queueing delay per DRAM burst
system.mem_ctrls2.avgBusLat                   5000.00                       # Average bus latency per DRAM burst
system.mem_ctrls2.avgMemAccLat              112478.90                       # Average memory access latency per DRAM burst
system.mem_ctrls2.avgRdBW                      217.00                       # Average DRAM read bandwidth in MiByte/s
system.mem_ctrls2.avgWrBW                      137.02                       # Average achieved write bandwidth in MiByte/s
system.mem_ctrls2.avgRdBWSys                   217.04                       # Average system read bandwidth in MiByte/s
system.mem_ctrls2.avgWrBWSys                   137.02                       # Average system write bandwidth in MiByte/s
system.mem_ctrls2.peakBW                     12800.00                       # Theoretical peak bandwidth in MiByte/s
system.mem_ctrls2.busUtil                        2.77                       # Data bus utilization in percentage
system.mem_ctrls2.busUtilRead                    1.70                       # Data bus utilization in percentage for reads
system.mem_ctrls2.busUtilWrite                   1.07                       # Data bus utilization in percentage for writes
system.mem_ctrls2.avgRdQLen                      1.35                       # Average read queue length when enqueuing
system.mem_ctrls2.avgWrQLen                      2.92                       # Average write queue length when enqueuing
system.mem_ctrls2.readRowHits                  152818                       # Number of row buffer hits during reads
system.mem_ctrls2.writeRowHits                  86997                       # Number of row buffer hits during writes
system.mem_ctrls2.readRowHitRate                78.86                       # Row buffer hit rate for reads
system.mem_ctrls2.writeRowHitRate               71.09                       # Row buffer hit rate for writes
system.mem_ctrls2.avgGap                    180757.87                       # Average gap between requests
system.mem_ctrls2.pageHitRate                   75.85                       # Row buffer hit rate, read and write combined
system.mem_ctrls2.memoryStateTime::IDLE   11877532000                       # Time in different power states
system.mem_ctrls2.memoryStateTime::REF     1908400000                       # Time in different power states
system.mem_ctrls2.memoryStateTime::PRE_PDN            0                       # Time in different power states
system.mem_ctrls2.memoryStateTime::ACT    43365430750                       # Time in different power states
system.mem_ctrls2.memoryStateTime::ACT_PDN            0                       # Time in different power states
system.mem_ctrls2.actEnergy::0              290712240                       # Energy for activate commands per rank (pJ)
system.mem_ctrls2.actEnergy::1              286357680                       # Energy for activate commands per rank (pJ)
system.mem_ctrls2.preEnergy::0              158622750                       # Energy for precharge commands per rank (pJ)
system.mem_ctrls2.preEnergy::1              156246750                       # Energy for precharge commands per rank (pJ)
system.mem_ctrls2.readEnergy::0             755079000                       # Energy for read commands per rank (pJ)
system.mem_ctrls2.readEnergy::1             756046200                       # Energy for read commands per rank (pJ)
system.mem_ctrls2.writeEnergy::0            396420480                       # Energy for write commands per rank (pJ)
system.mem_ctrls2.writeEnergy::1            396485280                       # Energy for write commands per rank (pJ)
system.mem_ctrls2.refreshEnergy::0         3732830400                       # Energy for refresh commands per rank (pJ)
system.mem_ctrls2.refreshEnergy::1         3732830400                       # Energy for refresh commands per rank (pJ)
system.mem_ctrls2.actBackEnergy::0        22123892790                       # Energy for active background per rank (pJ)
system.mem_ctrls2.actBackEnergy::1        21622434435                       # Energy for active background per rank (pJ)
system.mem_ctrls2.preBackEnergy::0        14883885750                       # Energy for precharge background per rank (pJ)
system.mem_ctrls2.preBackEnergy::1        15323761500                       # Energy for precharge background per rank (pJ)
system.mem_ctrls2.totalEnergy::0          42341443410                       # Total energy per rank (pJ)
system.mem_ctrls2.totalEnergy::1          42274162245                       # Total energy per rank (pJ)
system.mem_ctrls2.averagePower::0          740.865165                       # Core power per rank (mW)
system.mem_ctrls2.averagePower::1          739.687919                       # Core power per rank (mW)
system.mem_ctrls3.bytes_read::ruby.dir_cntrl3     12385216                       # Number of bytes read from this memory
system.mem_ctrls3.bytes_read::total          12385216                       # Number of bytes read from this memory
system.mem_ctrls3.bytes_written::ruby.dir_cntrl3      7830144                       # Number of bytes written to this memory
system.mem_ctrls3.bytes_written::total        7830144                       # Number of bytes written to this memory
system.mem_ctrls3.num_reads::ruby.dir_cntrl3       193519                       # Number of read requests responded to by this memory
system.mem_ctrls3.num_reads::total             193519                       # Number of read requests responded to by this memory
system.mem_ctrls3.num_writes::ruby.dir_cntrl3       122346                       # Number of write requests responded to by this memory
system.mem_ctrls3.num_writes::total            122346                       # Number of write requests responded to by this memory
system.mem_ctrls3.bw_read::ruby.dir_cntrl3    216688846                       # Total read bandwidth from this memory (bytes/s)
system.mem_ctrls3.bw_read::total            216688846                       # Total read bandwidth from this memory (bytes/s)
system.mem_ctrls3.bw_write::ruby.dir_cntrl3    136994370                       # Write bandwidth from this memory (bytes/s)
system.mem_ctrls3.bw_write::total           136994370                       # Write bandwidth from this memory (bytes/s)
system.mem_ctrls3.bw_total::ruby.dir_cntrl3    353683216                       # Total bandwidth to/from this memory (bytes/s)
system.mem_ctrls3.bw_total::total           353683216                       # Total bandwidth to/from this memory (bytes/s)
system.mem_ctrls3.readReqs                     193519                       # Number of read requests accepted
system.mem_ctrls3.writeReqs                    122346                       # Number of write requests accepted
system.mem_ctrls3.readBursts                   193519                       # Number of DRAM read bursts, including those serviced by the write queue
system.mem_ctrls3.writeBursts                  122346                       # Number of DRAM write bursts, including those merged in the write queue
system.mem_ctrls3.bytesReadDRAM              12383424                       # Total number of bytes read from DRAM
system.mem_ctrls3.bytesReadWrQ                   1792                       # Total number of bytes read from write queue
system.mem_ctrls3.bytesWritten                7829952                       # Total number of bytes written to DRAM
system.mem_ctrls3.bytesReadSys               12385216                       # Total read bytes from the system interface side
system.mem_ctrls3.bytesWrittenSys             7830144                       # Total written bytes from the system interface side
system.mem_ctrls3.servicedByWrQ                    28                       # Number of DRAM read bursts serviced by the write queue
system.mem_ctrls3.mergedWrBursts                    0                       # Number of DRAM write bursts merged with an existing one
system.mem_ctrls3.neitherReadNorWriteReqs            0                       # Number of requests that are neither read nor write
system.mem_ctrls3.perBankRdBursts::0            11872                       # Per bank write bursts
system.mem_ctrls3.perBankRdBursts::1            11969                       # Per bank write bursts
system.mem_ctrls3.perBankRdBursts::2            11809                       # Per bank write bursts
system.mem_ctrls3.perBankRdBursts::3            12185                       # Per bank write bursts
system.mem_ctrls3.perBankRdBursts::4            11960                       # Per bank write bursts
system.mem_ctrls3.perBankRdBursts::5            12058                       # Per bank write bursts
system.mem_ctrls3.perBankRdBursts::6            12259                       # Per bank write bursts
system.mem_ctrls3.perBankRdBursts::7            12449                       # Per bank write bursts
system.mem_ctrls3.perBankRdBursts::8            12185                       # Per bank write bursts
system.mem_ctrls3.perBankRdBursts::9            12525                       # Per bank write bursts
system.mem_ctrls3.perBankRdBursts::10           12203                       # Per bank write bursts
system.mem_ctrls3.perBankRdBursts::11           12511                       # Per bank write bursts
system.mem_ctrls3.perBankRdBursts::12           12039                       # Per bank write bursts
system.mem_ctrls3.perBankRdBursts::13           11767                       # Per bank write bursts
system.mem_ctrls3.perBankRdBursts::14           11989                       # Per bank write bursts
system.mem_ctrls3.perBankRdBursts::15           11711                       # Per bank write bursts
system.mem_ctrls3.perBankWrBursts::0             7600                       # Per bank write bursts
system.mem_ctrls3.perBankWrBursts::1             7447                       # Per bank write bursts
system.mem_ctrls3.perBankWrBursts::2             7612                       # Per bank write bursts
system.mem_ctrls3.perBankWrBursts::3             7628                       # Per bank write bursts
system.mem_ctrls3.perBankWrBursts::4             7604                       # Per bank write bursts
system.mem_ctrls3.perBankWrBursts::5             7689                       # Per bank write bursts
system.mem_ctrls3.perBankWrBursts::6             7768                       # Per bank write bursts
system.mem_ctrls3.perBankWrBursts::7             7809                       # Per bank write bursts
system.mem_ctrls3.perBankWrBursts::8             7727                       # Per bank write bursts
system.mem_ctrls3.perBankWrBursts::9             7870                       # Per bank write bursts
system.mem_ctrls3.perBankWrBursts::10            7677                       # Per bank write bursts
system.mem_ctrls3.perBankWrBursts::11            7734                       # Per bank write bursts
system.mem_ctrls3.perBankWrBursts::12            7556                       # Per bank write bursts
system.mem_ctrls3.perBankWrBursts::13            7596                       # Per bank write bursts
system.mem_ctrls3.perBankWrBursts::14            7604                       # Per bank write bursts
system.mem_ctrls3.perBankWrBursts::15            7422                       # Per bank write bursts
system.mem_ctrls3.numRdRetry                    13176                       # Number of times read queue was full causing retry
system.mem_ctrls3.numWrRetry                     4969                       # Number of times write queue was full causing retry
system.mem_ctrls3.totGap                  57155644000                       # Total gap between requests
system.mem_ctrls3.readPktSize::0                    0                       # Read request sizes (log2)
system.mem_ctrls3.readPktSize::1                    0                       # Read request sizes (log2)
system.mem_ctrls3.readPktSize::2                    0                       # Read request sizes (log2)
system.mem_ctrls3.readPktSize::3                    0                       # Read request sizes (log2)
system.mem_ctrls3.readPktSize::4                    0                       # Read request sizes (log2)
system.mem_ctrls3.readPktSize::5                    0                       # Read request sizes (log2)
system.mem_ctrls3.readPktSize::6               193519                       # Read request sizes (log2)
system.mem_ctrls3.writePktSize::0                   0                       # Write request sizes (log2)
system.mem_ctrls3.writePktSize::1                   0                       # Write request sizes (log2)
system.mem_ctrls3.writePktSize::2                   0                       # Write request sizes (log2)
system.mem_ctrls3.writePktSize::3                   0                       # Write request sizes (log2)
system.mem_ctrls3.writePktSize::4                   0                       # Write request sizes (log2)
system.mem_ctrls3.writePktSize::5                   0                       # Write request sizes (log2)
system.mem_ctrls3.writePktSize::6              122346                       # Write request sizes (log2)
system.mem_ctrls3.rdQLenPdf::0                  72965                       # What read queue length does an incoming req see
system.mem_ctrls3.rdQLenPdf::1                   8343                       # What read queue length does an incoming req see
system.mem_ctrls3.rdQLenPdf::2                   7892                       # What read queue length does an incoming req see
system.mem_ctrls3.rdQLenPdf::3                   7484                       # What read queue length does an incoming req see
system.mem_ctrls3.rdQLenPdf::4                   7300                       # What read queue length does an incoming req see
system.mem_ctrls3.rdQLenPdf::5                   7108                       # What read queue length does an incoming req see
system.mem_ctrls3.rdQLenPdf::6                   6672                       # What read queue length does an incoming req see
system.mem_ctrls3.rdQLenPdf::7                   6080                       # What read queue length does an incoming req see
system.mem_ctrls3.rdQLenPdf::8                   5655                       # What read queue length does an incoming req see
system.mem_ctrls3.rdQLenPdf::9                   5083                       # What read queue length does an incoming req see
system.mem_ctrls3.rdQLenPdf::10                  4585                       # What read queue length does an incoming req see
system.mem_ctrls3.rdQLenPdf::11                  4035                       # What read queue length does an incoming req see
system.mem_ctrls3.rdQLenPdf::12                  3739                       # What read queue length does an incoming req see
system.mem_ctrls3.rdQLenPdf::13                  3375                       # What read queue length does an incoming req see
system.mem_ctrls3.rdQLenPdf::14                  3017                       # What read queue length does an incoming req see
system.mem_ctrls3.rdQLenPdf::15                  2794                       # What read queue length does an incoming req see
system.mem_ctrls3.rdQLenPdf::16                  2568                       # What read queue length does an incoming req see
system.mem_ctrls3.rdQLenPdf::17                  2325                       # What read queue length does an incoming req see
system.mem_ctrls3.rdQLenPdf::18                  2079                       # What read queue length does an incoming req see
system.mem_ctrls3.rdQLenPdf::19                  1897                       # What read queue length does an incoming req see
system.mem_ctrls3.rdQLenPdf::20                  1759                       # What read queue length does an incoming req see
system.mem_ctrls3.rdQLenPdf::21                  1601                       # What read queue length does an incoming req see
system.mem_ctrls3.rdQLenPdf::22                  1432                       # What read queue length does an incoming req see
system.mem_ctrls3.rdQLenPdf::23                  1317                       # What read queue length does an incoming req see
system.mem_ctrls3.rdQLenPdf::24                  1254                       # What read queue length does an incoming req see
[...]
system.ruby.L2Cache_Controller.IM.Mem_Data::total       476717                      
system.ruby.L2Cache_Controller.SS_MB.Exclusive_Unblock |           3      6.12%      6.12% |           6     12.24%     18.37% |           2      4.08%     22.45% |           3      6.12%     28.57% |           0      0.00%     28.57% |           0      0.00%     28.57% |           0      0.00%     28.57% |           0      0.00%     28.57% |           1      2.04%     30.61% |           0      0.00%     30.61% |           0      0.00%     30.61% |           1      2.04%     32.65% |           4      8.16%     40.82% |           0      0.00%     40.82% |           2      4.08%     44.90% |           0      0.00%     44.90% |           1      2.04%     46.94% |           2      4.08%     51.02% |          13     26.53%     77.55% |           3      6.12%     83.67% |           0      0.00%     83.67% |           0      0.00%     83.67% |           0      0.00%     83.67% |           0      0.00%     83.67% |           1      2.04%     85.71% |           0      0.00%     85.71% |           3      6.12%     91.84% |           4      8.16%    100.00% |           0      0.00%    100.00% |           0      0.00%    100.00% |           0      0.00%    100.00% |           0      0.00%    100.00%
system.ruby.L2Cache_Controller.SS_MB.Exclusive_Unblock::total           49                      
system.ruby.L2Cache_Controller.MT_MB.L1_GETS |           2    100.00%    100.00% |           0      0.00%    100.00% |           0      0.00%    100.00% |           0      0.00%    100.00% |           0      0.00%    100.00% |           0      0.00%    100.00% |           0      0.00%    100.00% |           0      0.00%    100.00% |           0      0.00%    100.00% |           0      0.00%    100.00% |           0      0.00%    100.00% |           0      0.00%    100.00% |           0      0.00%    100.00% |           0      0.00%    100.00% |           0      0.00%    100.00% |           0      0.00%    100.00% |           0      0.00%    100.00% |           0      0.00%    100.00% |           0      0.00%    100.00% |           0      0.00%    100.00% |           0      0.00%    100.00% |           0      0.00%    100.00% |           0      0.00%    100.00% |           0      0.00%    100.00% |           0      0.00%    100.00% |           0      0.00%    100.00% |           0      0.00%    100.00% |           0      0.00%    100.00% |           0      0.00%    100.00% |           0      0.00%    100.00% |           0      0.00%    100.00% |           0      0.00%    100.00%
system.ruby.L2Cache_Controller.MT_MB.L1_GETS::total            2                      
system.ruby.L2Cache_Controller.MT_MB.L1_GETX |           1    100.00%    100.00% |           0      0.00%    100.00% |           0      0.00%    100.00% |           0      0.00%    100.00% |           0      0.00%    100.00% |           0      0.00%    100.00% |           0      0.00%    100.00% |           0      0.00%    100.00% |           0      0.00%    100.00% |           0      0.00%    100.00% |           0      0.00%    100.00% |           0      0.00%    100.00% |           0      0.00%    100.00% |           0      0.00%    100.00% |           0      0.00%    100.00% |           0      0.00%    100.00% |           0      0.00%    100.00% |           0      0.00%    100.00% |           0      0.00%    100.00% |           0      0.00%    100.00% |           0      0.00%    100.00% |           0      0.00%    100.00% |           0      0.00%    100.00% |           0      0.00%    100.00% |           0      0.00%    100.00% |           0      0.00%    100.00% |           0      0.00%    100.00% |           0      0.00%    100.00% |           0      0.00%    100.00% |           0      0.00%    100.00% |           0      0.00%    100.00% |           0      0.00%    100.00%
system.ruby.L2Cache_Controller.MT_MB.L1_GETX::total            1                      
system.ruby.L2Cache_Controller.MT_MB.L1_PUTX |           1    100.00%    100.00% |           0      0.00%    100.00% |           0      0.00%    100.00% |           0      0.00%    100.00% |           0      0.00%    100.00% |           0      0.00%    100.00% |           0      0.00%    100.00% |           0      0.00%    100.00% |           0      0.00%    100.00% |           0      0.00%    100.00% |           0      0.00%    100.00% |           0      0.00%    100.00% |           0      0.00%    100.00% |           0      0.00%    100.00% |           0      0.00%    100.00% |           0      0.00%    100.00% |           0      0.00%    100.00% |           0      0.00%    100.00% |           0      0.00%    100.00% |           0      0.00%    100.00% |           0      0.00%    100.00% |           0      0.00%    100.00% |           0      0.00%    100.00% |           0      0.00%    100.00% |           0      0.00%    100.00% |           0      0.00%    100.00% |           0      0.00%    100.00% |           0      0.00%    100.00% |           0      0.00%    100.00% |           0      0.00%    100.00% |           0      0.00%    100.00% |           0      0.00%    100.00%
system.ruby.L2Cache_Controller.MT_MB.L1_PUTX::total            1                      
system.ruby.L2Cache_Controller.MT_MB.Exclusive_Unblock |       75909      7.22%      7.22% |       32862      3.13%     10.35% |       29486      2.81%     13.15% |       32392      3.08%     16.24% |       29785      2.83%     19.07% |       29679      2.82%     21.89% |       29083      2.77%     24.66% |       29699      2.83%     27.49% |       30397      2.89%     30.38% |       29991      2.85%     33.23% |       32546      3.10%     36.33% |       30867      2.94%     39.27% |       30524      2.90%     42.17% |       30304      2.88%     45.05% |       29598      2.82%     47.87% |       30194      2.87%     50.74% |       31503      3.00%     53.74% |       30314      2.88%     56.62% |       30938      2.94%     59.57% |       31636      3.01%     62.58% |       32123      3.06%     65.63% |       37031      3.52%     69.16% |       31256      2.97%     72.13% |       31248      2.97%     75.10% |       31258      2.97%     78.08% |       31240      2.97%     81.05% |       31163      2.97%     84.02% |       30878      2.94%     86.95% |       32686      3.11%     90.06% |       32158      3.06%     93.12% |       34147      3.25%     96.37% |       38129      3.63%    100.00%
system.ruby.L2Cache_Controller.MT_MB.Exclusive_Unblock::total      1051024                      
system.ruby.L2Cache_Controller.MT_IIB.WB_Data |           1      1.25%      1.25% |           2      2.50%      3.75% |           1      1.25%      5.00% |           3      3.75%      8.75% |           3      3.75%     12.50% |           3      3.75%     16.25% |           4      5.00%     21.25% |           3      3.75%     25.00% |           5      6.25%     31.25% |           3      3.75%     35.00% |           2      2.50%     37.50% |           2      2.50%     40.00% |           3      3.75%     43.75% |           3      3.75%     47.50% |           4      5.00%     52.50% |           3      3.75%     56.25% |           3      3.75%     60.00% |           1      1.25%     61.25% |           2      2.50%     63.75% |           0      0.00%     63.75% |           1      1.25%     65.00% |           0      0.00%     65.00% |           1      1.25%     66.25% |           2      2.50%     68.75% |           3      3.75%     72.50% |           5      6.25%     78.75% |           4      5.00%     83.75% |           4      5.00%     88.75% |           3      3.75%     92.50% |           2      2.50%     95.00% |           2      2.50%     97.50% |           2      2.50%    100.00%
system.ruby.L2Cache_Controller.MT_IIB.WB_Data::total           80                      
system.ruby.L2Cache_Controller.MT_IIB.WB_Data_clean |          40     46.51%     46.51% |           0      0.00%     46.51% |           0      0.00%     46.51% |          16     18.60%     65.12% |           0      0.00%     65.12% |           0      0.00%     65.12% |           0      0.00%     65.12% |           0      0.00%     65.12% |           0      0.00%     65.12% |           0      0.00%     65.12% |           0      0.00%     65.12% |           0      0.00%     65.12% |           0      0.00%     65.12% |           0      0.00%     65.12% |           0      0.00%     65.12% |           0      0.00%     65.12% |          13     15.12%     80.23% |           0      0.00%     80.23% |           0      0.00%     80.23% |          15     17.44%     97.67% |           0      0.00%     97.67% |           0      0.00%     97.67% |           0      0.00%     97.67% |           0      0.00%     97.67% |           0      0.00%     97.67% |           0      0.00%     97.67% |           0      0.00%     97.67% |           2      2.33%    100.00% |           0      0.00%    100.00% |           0      0.00%    100.00% |           0      0.00%    100.00% |           0      0.00%    100.00%
system.ruby.L2Cache_Controller.MT_IIB.WB_Data_clean::total           86                      
system.ruby.L2Cache_Controller.MT_IIB.Unblock |           0      0.00%      0.00% |           0      0.00%      0.00% |           0      0.00%      0.00% |           0      0.00%      0.00% |           0      0.00%      0.00% |           0      0.00%      0.00% |           0      0.00%      0.00% |           0      0.00%      0.00% |           0      0.00%      0.00% |           0      0.00%      0.00% |           0      0.00%      0.00% |           0      0.00%      0.00% |           0      0.00%      0.00% |           0      0.00%      0.00% |           0      0.00%      0.00% |           0      0.00%      0.00% |           0      0.00%      0.00% |           0      0.00%      0.00% |           0      0.00%      0.00% |           1     50.00%     50.00% |           0      0.00%     50.00% |           0      0.00%     50.00% |           0      0.00%     50.00% |           0      0.00%     50.00% |           0      0.00%     50.00% |           0      0.00%     50.00% |           0      0.00%     50.00% |           1     50.00%    100.00% |           0      0.00%    100.00% |           0      0.00%    100.00% |           0      0.00%    100.00% |           0      0.00%    100.00%
system.ruby.L2Cache_Controller.MT_IIB.Unblock::total            2                      
system.ruby.L2Cache_Controller.MT_IB.WB_Data |           0      0.00%      0.00% |           0      0.00%      0.00% |           0      0.00%      0.00% |           0      0.00%      0.00% |           0      0.00%      0.00% |           0      0.00%      0.00% |           0      0.00%      0.00% |           0      0.00%      0.00% |           0      0.00%      0.00% |           0      0.00%      0.00% |           0      0.00%      0.00% |           0      0.00%      0.00% |           0      0.00%      0.00% |           0      0.00%      0.00% |           0      0.00%      0.00% |           0      0.00%      0.00% |           0      0.00%      0.00% |           0      0.00%      0.00% |           0      0.00%      0.00% |           0      0.00%      0.00% |           0      0.00%      0.00% |           0      0.00%      0.00% |           0      0.00%      0.00% |           0      0.00%      0.00% |           0      0.00%      0.00% |           0      0.00%      0.00% |           0      0.00%      0.00% |           1    100.00%    100.00% |           0      0.00%    100.00% |           0      0.00%    100.00% |           0      0.00%    100.00% |           0      0.00%    100.00%
system.ruby.L2Cache_Controller.MT_IB.WB_Data::total            1                      
system.ruby.L2Cache_Controller.MT_IB.WB_Data_clean |           0      0.00%      0.00% |           0      0.00%      0.00% |           0      0.00%      0.00% |           0      0.00%      0.00% |           0      0.00%      0.00% |           0      0.00%      0.00% |           0      0.00%      0.00% |           0      0.00%      0.00% |           0      0.00%      0.00% |           0      0.00%      0.00% |           0      0.00%      0.00% |           0      0.00%      0.00% |           0      0.00%      0.00% |           0      0.00%      0.00% |           0      0.00%      0.00% |           0      0.00%      0.00% |           0      0.00%      0.00% |           0      0.00%      0.00% |           0      0.00%      0.00% |           1    100.00%    100.00% |           0      0.00%    100.00% |           0      0.00%    100.00% |           0      0.00%    100.00% |           0      0.00%    100.00% |           0      0.00%    100.00% |           0      0.00%    100.00% |           0      0.00%    100.00% |           0      0.00%    100.00% |           0      0.00%    100.00% |           0      0.00%    100.00% |           0      0.00%    100.00% |           0      0.00%    100.00%
system.ruby.L2Cache_Controller.MT_IB.WB_Data_clean::total            1                      
system.ruby.L2Cache_Controller.MT_SB.Unblock |          41     24.70%     24.70% |           2      1.20%     25.90% |           1      0.60%     26.51% |          19     11.45%     37.95% |           3      1.81%     39.76% |           3      1.81%     41.57% |           4      2.41%     43.98% |           3      1.81%     45.78% |           5      3.01%     48.80% |           3      1.81%     50.60% |           2      1.20%     51.81% |           2      1.20%     53.01% |           3      1.81%     54.82% |           3      1.81%     56.63% |           4      2.41%     59.04% |           3      1.81%     60.84% |          16      9.64%     70.48% |           1      0.60%     71.08% |           2      1.20%     72.29% |          15      9.04%     81.33% |           1      0.60%     81.93% |           0      0.00%     81.93% |           1      0.60%     82.53% |           2      1.20%     83.73% |           3      1.81%     85.54% |           5      3.01%     88.55% |           4      2.41%     90.96% |           6      3.61%     94.58% |           3      1.81%     96.39% |           2      1.20%     97.59% |           2      1.20%     98.80% |           2      1.20%    100.00%
system.ruby.L2Cache_Controller.MT_SB.Unblock::total          166                      
system.ruby.SimicsNetworkPortInterface_Controller.MessageSend |      310167     23.58%     23.58% |      657692     50.00%     73.58% |       42803      3.25%     76.83% |       43720      3.32%     80.16% |       43939      3.34%     83.50% |       44194      3.36%     86.86% |       42902      3.26%     90.12% |       43969      3.34%     93.46% |       42919      3.26%     96.72% |       43079      3.28%    100.00% |           0      0.00%    100.00% |           0      0.00%    100.00% |           0      0.00%    100.00% |           0      0.00%    100.00% |           0      0.00%    100.00% |           0      0.00%    100.00% |           0      0.00%    100.00% |           0      0.00%    100.00% |           0      0.00%    100.00% |           0      0.00%    100.00% |           0      0.00%    100.00% |           0      0.00%    100.00% |           0      0.00%    100.00% |           0      0.00%    100.00% |           0      0.00%    100.00% |           0      0.00%    100.00% |           0      0.00%    100.00% |           0      0.00%    100.00% |           0      0.00%    100.00% |           0      0.00%    100.00% |           0      0.00%    100.00% |           0      0.00%    100.00%
system.ruby.SimicsNetworkPortInterface_Controller.MessageSend::total      1315384                      
system.ruby.SimicsNetworkPortInterface_Controller.MessageRecv |      310167     23.58%     23.58% |      657692     50.00%     73.58% |       42803      3.25%     76.83% |       43720      3.32%     80.16% |       43939      3.34%     83.50% |       44194      3.36%     86.86% |       42902      3.26%     90.12% |       43969      3.34%     93.46% |       42919      3.26%     96.72% |       43079      3.28%    100.00% |           0      0.00%    100.00% |           0      0.00%    100.00% |           0      0.00%    100.00% |           0      0.00%    100.00% |           0      0.00%    100.00% |           0      0.00%    100.00% |           0      0.00%    100.00% |           0      0.00%    100.00% |           0      0.00%    100.00% |           0      0.00%    100.00% |           0      0.00%    100.00% |           0      0.00%    100.00% |           0      0.00%    100.00% |           0      0.00%    100.00% |           0      0.00%    100.00% |           0      0.00%    100.00% |           0      0.00%    100.00% |           0      0.00%    100.00% |           0      0.00%    100.00% |           0      0.00%    100.00% |           0      0.00%    100.00% |           0      0.00%    100.00%
system.ruby.SimicsNetworkPortInterface_Controller.MessageRecv::total      1315384                      
system.ruby.SimicsNetworkPortInterface_Controller.A.MessageSend |      310167     23.58%     23.58% |      657692     50.00%     73.58% |       42803      3.25%     76.83% |       43720      3.32%     80.16% |       43939      3.34%     83.50% |       44194      3.36%     86.86% |       42902      3.26%     90.12% |       43969      3.34%     93.46% |       42919      3.26%     96.72% |       43079      3.28%    100.00% |           0      0.00%    100.00% |           0      0.00%    100.00% |           0      0.00%    100.00% |           0      0.00%    100.00% |           0      0.00%    100.00% |           0      0.00%    100.00% |           0      0.00%    100.00% |           0      0.00%    100.00% |           0      0.00%    100.00% |           0      0.00%    100.00% |           0      0.00%    100.00% |           0      0.00%    100.00% |           0      0.00%    100.00% |           0      0.00%    100.00% |           0      0.00%    100.00% |           0      0.00%    100.00% |           0      0.00%    100.00% |           0      0.00%    100.00% |           0      0.00%    100.00% |           0      0.00%    100.00% |           0      0.00%    100.00% |           0      0.00%    100.00%
system.ruby.SimicsNetworkPortInterface_Controller.A.MessageSend::total      1315384                      
system.ruby.SimicsNetworkPortInterface_Controller.A.MessageRecv |      310167     23.58%     23.58% |      657692     50.00%     73.58% |       42803      3.25%     76.83% |       43720      3.32%     80.16% |       43939      3.34%     83.50% |       44194      3.36%     86.86% |       42902      3.26%     90.12% |       43969      3.34%     93.46% |       42919      3.26%     96.72% |       43079      3.28%    100.00% |           0      0.00%    100.00% |           0      0.00%    100.00% |           0      0.00%    100.00% |           0      0.00%    100.00% |           0      0.00%    100.00% |           0      0.00%    100.00% |           0      0.00%    100.00% |           0      0.00%    100.00% |           0      0.00%    100.00% |           0      0.00%    100.00% |           0      0.00%    100.00% |           0      0.00%    100.00% |           0      0.00%    100.00% |           0      0.00%    100.00% |           0      0.00%    100.00% |           0      0.00%    100.00% |           0      0.00%    100.00% |           0      0.00%    100.00% |           0      0.00%    100.00% |           0      0.00%    100.00% |           0      0.00%    100.00% |           0      0.00%    100.00%
system.ruby.SimicsNetworkPortInterface_Controller.A.MessageRecv::total      1315384                      
system.switch_cpus.kern.inst.arm                    0                       # number of arm instructions executed
system.switch_cpus.kern.inst.quiesce                0                       # number of quiesce instructions executed

---------- End Simulation Statistics   ----------
