
---------- Begin Simulation Statistics ----------
sim_seconds                                  0.038833                       # Number of seconds simulated
sim_ticks                                 38832775000                       # Number of ticks simulated
final_tick                               5215000853500                       # Number of ticks from beginning of simulation (restored from checkpoints and never reset)
sim_freq                                 1000000000000                       # Frequency of simulated ticks
host_inst_rate                                  23233                       # Simulator instruction rate (inst/s)
host_op_rate                                    40906                       # Simulator op (including micro ops) rate (op/s)
host_tick_rate                               49627445                       # Simulator tick rate (ticks/s)
host_mem_usage                                3225056                       # Number of bytes of host memory used
host_seconds                                   782.49                       # Real time elapsed on the host
sim_insts                                    18179471                       # Number of instructions simulated
sim_ops                                      32008639                       # Number of ops (including micro ops) simulated
system.voltage_domain.voltage                       1                       # Voltage in Volts
system.clk_domain.clock                           500                       # Clock period in ticks
system.mem_ctrls0.bytes_read::ruby.dir_cntrl0      4688640                       # Number of bytes read from this memory
system.mem_ctrls0.bytes_read::total           4688640                       # Number of bytes read from this memory
system.mem_ctrls0.bytes_written::ruby.dir_cntrl0      2862144                       # Number of bytes written to this memory
system.mem_ctrls0.bytes_written::total        2862144                       # Number of bytes written to this memory
system.mem_ctrls0.num_reads::ruby.dir_cntrl0        73260                       # Number of read requests responded to by this memory
system.mem_ctrls0.num_reads::total              73260                       # Number of read requests responded to by this memory
system.mem_ctrls0.num_writes::ruby.dir_cntrl0        44721                       # Number of write requests responded to by this memory
system.mem_ctrls0.num_writes::total             44721                       # Number of write requests responded to by this memory
system.mem_ctrls0.bw_read::ruby.dir_cntrl0    120739247                       # Total read bandwidth from this memory (bytes/s)
system.mem_ctrls0.bw_read::total            120739247                       # Total read bandwidth from this memory (bytes/s)
system.mem_ctrls0.bw_write::ruby.dir_cntrl0     73704339                       # Write bandwidth from this memory (bytes/s)
system.mem_ctrls0.bw_write::total            73704339                       # Write bandwidth from this memory (bytes/s)
system.mem_ctrls0.bw_total::ruby.dir_cntrl0    194443585                       # Total bandwidth to/from this memory (bytes/s)
system.mem_ctrls0.bw_total::total           194443585                       # Total bandwidth to/from this memory (bytes/s)
system.mem_ctrls0.readReqs                      73260                       # Number of read requests accepted
system.mem_ctrls0.writeReqs                     44721                       # Number of write requests accepted
system.mem_ctrls0.readBursts                    73260                       # Number of DRAM read bursts, including those serviced by the write queue
system.mem_ctrls0.writeBursts                   44721                       # Number of DRAM write bursts, including those merged in the write queue
system.mem_ctrls0.bytesReadDRAM               4687808                       # Total number of bytes read from DRAM
system.mem_ctrls0.bytesReadWrQ                    832                       # Total number of bytes read from write queue
system.mem_ctrls0.bytesWritten                2862016                       # Total number of bytes written to DRAM
system.mem_ctrls0.bytesReadSys                4688640                       # Total read bytes from the system interface side
system.mem_ctrls0.bytesWrittenSys             2862144                       # Total written bytes from the system interface side
system.mem_ctrls0.servicedByWrQ                    13                       # Number of DRAM read bursts serviced by the write queue
system.mem_ctrls0.mergedWrBursts                    0                       # Number of DRAM write bursts merged with an existing one
system.mem_ctrls0.neitherReadNorWriteReqs            0                       # Number of requests that are neither read nor write
system.mem_ctrls0.perBankRdBursts::0             4426                       # Per bank write bursts
system.mem_ctrls0.perBankRdBursts::1             4891                       # Per bank write bursts
system.mem_ctrls0.perBankRdBursts::2             4541                       # Per bank write bursts
system.mem_ctrls0.perBankRdBursts::3             4886                       # Per bank write bursts
system.mem_ctrls0.perBankRdBursts::4             4634                       # Per bank write bursts
system.mem_ctrls0.perBankRdBursts::5             4726                       # Per bank write bursts
system.mem_ctrls0.perBankRdBursts::6             4552                       # Per bank write bursts
system.mem_ctrls0.perBankRdBursts::7             4522                       # Per bank write bursts
system.mem_ctrls0.perBankRdBursts::8             4505                       # Per bank write bursts
system.mem_ctrls0.perBankRdBursts::9             4793                       # Per bank write bursts
system.mem_ctrls0.perBankRdBursts::10            4517                       # Per bank write bursts
system.mem_ctrls0.perBankRdBursts::11            4732                       # Per bank write bursts
system.mem_ctrls0.perBankRdBursts::12            4350                       # Per bank write bursts
system.mem_ctrls0.perBankRdBursts::13            4197                       # Per bank write bursts
system.mem_ctrls0.perBankRdBursts::14            4469                       # Per bank write bursts
system.mem_ctrls0.perBankRdBursts::15            4506                       # Per bank write bursts
system.mem_ctrls0.perBankWrBursts::0             2818                       # Per bank write bursts
system.mem_ctrls0.perBankWrBursts::1             2810                       # Per bank write bursts
system.mem_ctrls0.perBankWrBursts::2             2793                       # Per bank write bursts
system.mem_ctrls0.perBankWrBursts::3             2882                       # Per bank write bursts
system.mem_ctrls0.perBankWrBursts::4             2801                       # Per bank write bursts
system.mem_ctrls0.perBankWrBursts::5             2939                       # Per bank write bursts
system.mem_ctrls0.perBankWrBursts::6             2769                       # Per bank write bursts
system.mem_ctrls0.perBankWrBursts::7             2846                       # Per bank write bursts
system.mem_ctrls0.perBankWrBursts::8             2739                       # Per bank write bursts
system.mem_ctrls0.perBankWrBursts::9             2919                       # Per bank write bursts
system.mem_ctrls0.perBankWrBursts::10            2766                       # Per bank write bursts
system.mem_ctrls0.perBankWrBursts::11            2698                       # Per bank write bursts
system.mem_ctrls0.perBankWrBursts::12            2633                       # Per bank write bursts
system.mem_ctrls0.perBankWrBursts::13            2669                       # Per bank write bursts
system.mem_ctrls0.perBankWrBursts::14            2876                       # Per bank write bursts
system.mem_ctrls0.perBankWrBursts::15            2761                       # Per bank write bursts
system.mem_ctrls0.numRdRetry                      367                       # Number of times read queue was full causing retry
system.mem_ctrls0.numWrRetry                     2221                       # Number of times write queue was full causing retry
system.mem_ctrls0.totGap                  38832262500                       # Total gap between requests
system.mem_ctrls0.readPktSize::0                    0                       # Read request sizes (log2)
system.mem_ctrls0.readPktSize::1                    0                       # Read request sizes (log2)
system.mem_ctrls0.readPktSize::2                    0                       # Read request sizes (log2)
system.mem_ctrls0.readPktSize::3                    0                       # Read request sizes (log2)
system.mem_ctrls0.readPktSize::4                    0                       # Read request sizes (log2)
system.mem_ctrls0.readPktSize::5                    0                       # Read request sizes (log2)
system.mem_ctrls0.readPktSize::6                73260                       # Read request sizes (log2)
system.mem_ctrls0.writePktSize::0                   0                       # Write request sizes (log2)
system.mem_ctrls0.writePktSize::1                   0                       # Write request sizes (log2)
system.mem_ctrls0.writePktSize::2                   0                       # Write request sizes (log2)
system.mem_ctrls0.writePktSize::3                   0                       # Write request sizes (log2)
system.mem_ctrls0.writePktSize::4                   0                       # Write request sizes (log2)
system.mem_ctrls0.writePktSize::5                   0                       # Write request sizes (log2)
system.mem_ctrls0.writePktSize::6               44721                       # Write request sizes (log2)
system.mem_ctrls0.rdQLenPdf::0                  45814                       # What read queue length does an incoming req see
system.mem_ctrls0.rdQLenPdf::1                   4422                       # What read queue length does an incoming req see
system.mem_ctrls0.rdQLenPdf::2                   3617                       # What read queue length does an incoming req see
system.mem_ctrls0.rdQLenPdf::3                   2929                       # What read queue length does an incoming req see
system.mem_ctrls0.rdQLenPdf::4                   2282                       # What read queue length does an incoming req see
system.mem_ctrls0.rdQLenPdf::5                   1932                       # What read queue length does an incoming req see
system.mem_ctrls0.rdQLenPdf::6                   1543                       # What read queue length does an incoming req see
system.mem_ctrls0.rdQLenPdf::7                   1264                       # What read queue length does an incoming req see
system.mem_ctrls0.rdQLenPdf::8                   1136                       # What read queue length does an incoming req see
system.mem_ctrls0.rdQLenPdf::9                    974                       # What read queue length does an incoming req see
system.mem_ctrls0.rdQLenPdf::10                   818                       # What read queue length does an incoming req see
system.mem_ctrls0.rdQLenPdf::11                   728                       # What read queue length does an incoming req see
system.mem_ctrls0.rdQLenPdf::12                   645                       # What read queue length does an incoming req see
system.mem_ctrls0.rdQLenPdf::13                   534                       # What read queue length does an incoming req see
system.mem_ctrls0.rdQLenPdf::14                   496                       # What read queue length does an incoming req see
system.mem_ctrls0.rdQLenPdf::15                   414                       # What read queue length does an incoming req see
system.mem_ctrls0.rdQLenPdf::16                   379                       # What read queue length does an incoming req see
system.mem_ctrls0.rdQLenPdf::17                   340                       # What read queue length does an incoming req see
system.mem_ctrls0.rdQLenPdf::18                   321                       # What read queue length does an incoming req see
system.mem_ctrls0.rdQLenPdf::19                   293                       # What read queue length does an incoming req see
system.mem_ctrls0.rdQLenPdf::20                   261                       # What read queue length does an incoming req see
system.mem_ctrls0.rdQLenPdf::21                   237                       # What read queue length does an incoming req see
system.mem_ctrls0.rdQLenPdf::22                   211                       # What read queue length does an incoming req see
system.mem_ctrls0.rdQLenPdf::23                   200                       # What read queue length does an incoming req see
system.mem_ctrls0.rdQLenPdf::24                   173                       # What read queue length does an incoming req see
system.mem_ctrls0.rdQLenPdf::25                   153                       # What read queue length does an incoming req see
system.mem_ctrls0.rdQLenPdf::26                   144                       # What read queue length does an incoming req see
system.mem_ctrls0.rdQLenPdf::27                   142                       # What read queue length does an incoming req see
system.mem_ctrls0.rdQLenPdf::28                   131                       # What read queue length does an incoming req see
system.mem_ctrls0.rdQLenPdf::29                   126                       # What read queue length does an incoming req see
system.mem_ctrls0.rdQLenPdf::30                   112                       # What read queue length does an incoming req see
system.mem_ctrls0.rdQLenPdf::31                   476                       # What read queue length does an incoming req see
system.mem_ctrls0.wrQLenPdf::0                   7719                       # What write queue length does an incoming req see
system.mem_ctrls0.wrQLenPdf::1                   7994                       # What write queue length does an incoming req see
system.mem_ctrls0.wrQLenPdf::2                   8154                       # What write queue length does an incoming req see
system.mem_ctrls0.wrQLenPdf::3                   8221                       # What write queue length does an incoming req see
system.mem_ctrls0.wrQLenPdf::4                   8327                       # What write queue length does an incoming req see
system.mem_ctrls0.wrQLenPdf::5                    796                       # What write queue length does an incoming req see
system.mem_ctrls0.wrQLenPdf::6                    697                       # What write queue length does an incoming req see
system.mem_ctrls0.wrQLenPdf::7                   2813                       # What write queue length does an incoming req see
system.mem_ctrls0.bytesPerActivate::samples        32352                       # Bytes accessed per row activation
system.mem_ctrls0.bytesPerActivate::mean   233.339268                       # Bytes accessed per row activation
system.mem_ctrls0.bytesPerActivate::gmean   157.470469                       # Bytes accessed per row activation
system.mem_ctrls0.bytesPerActivate::stdev   234.355110                       # Bytes accessed per row activation
system.mem_ctrls0.bytesPerActivate::0-127        12584     38.90%     38.90% # Bytes accessed per row activation
system.mem_ctrls0.bytesPerActivate::128-255         7239     22.38%     61.27% # Bytes accessed per row activation
system.mem_ctrls0.bytesPerActivate::256-383         8059     24.91%     86.18% # Bytes accessed per row activation
system.mem_ctrls0.bytesPerActivate::384-511         1051      3.25%     89.43% # Bytes accessed per row activation
system.mem_ctrls0.bytesPerActivate::512-639          783      2.42%     91.85% # Bytes accessed per row activation
system.mem_ctrls0.bytesPerActivate::640-767          558      1.72%     93.58% # Bytes accessed per row activation
system.mem_ctrls0.bytesPerActivate::768-895          445      1.38%     94.95% # Bytes accessed per row activation
system.mem_ctrls0.bytesPerActivate::896-1023          433      1.34%     96.29% # Bytes accessed per row activation
system.mem_ctrls0.bytesPerActivate::1024-1151         1200      3.71%    100.00% # Bytes accessed per row activation
system.mem_ctrls0.bytesPerActivate::total        32352                       # Bytes accessed per row activation
system.mem_ctrls0.rdPerTurnAround::samples         7954                       # Reads before turning the bus around for writes
system.mem_ctrls0.rdPerTurnAround::mean      9.206940                       # Reads before turning the bus around for writes
system.mem_ctrls0.rdPerTurnAround::stdev    46.040008                       # Reads before turning the bus around for writes
system.mem_ctrls0.rdPerTurnAround::0-127         7947     99.91%     99.91% # Reads before turning the bus around for writes
system.mem_ctrls0.rdPerTurnAround::128-255            6      0.08%     99.99% # Reads before turning the bus around for writes
system.mem_ctrls0.rdPerTurnAround::3968-4095            1      0.01%    100.00% # Reads before turning the bus around for writes
system.mem_ctrls0.rdPerTurnAround::total         7954                       # Reads before turning the bus around for writes
system.mem_ctrls0.wrPerTurnAround::samples         7954                       # Writes before turning the bus around for reads
system.mem_ctrls0.wrPerTurnAround::mean      5.622203                       # Writes before turning the bus around for reads
system.mem_ctrls0.wrPerTurnAround::gmean     5.390298                       # Writes before turning the bus around for reads
system.mem_ctrls0.wrPerTurnAround::stdev     2.229612                       # Writes before turning the bus around for reads
system.mem_ctrls0.wrPerTurnAround::4-7           7427     93.37%     93.37% # Writes before turning the bus around for reads
system.mem_ctrls0.wrPerTurnAround::8-11           161      2.02%     95.40% # Writes before turning the bus around for reads
system.mem_ctrls0.wrPerTurnAround::12-15          105      1.32%     96.72% # Writes before turning the bus around for reads
system.mem_ctrls0.wrPerTurnAround::16-19          261      3.28%    100.00% # Writes before turning the bus around for reads
system.mem_ctrls0.wrPerTurnAround::total         7954                       # Writes before turning the bus around for reads
system.mem_ctrls0.totQLat                  3370523886                       # Total ticks spent queuing
system.mem_ctrls0.totMemAccLat             4743905136                       # Total ticks spent from burst creation until serviced by the DRAM
system.mem_ctrls0.totBusLat                 366235000                       # Total ticks spent in databus transfers
system.mem_ctrls0.avgQLat                    46015.86                       # Average queueing delay per DRAM burst
system.mem_ctrls0.avgBusLat                   5000.00                       # Average bus latency per DRAM burst
system.mem_ctrls0.avgMemAccLat               64765.86                       # Average memory access latency per DRAM burst
system.mem_ctrls0.avgRdBW                      120.72                       # Average DRAM read bandwidth in MiByte/s
system.mem_ctrls0.avgWrBW                       73.70                       # Average achieved write bandwidth in MiByte/s
system.mem_ctrls0.avgRdBWSys                   120.74                       # Average system read bandwidth in MiByte/s
system.mem_ctrls0.avgWrBWSys                    73.70                       # Average system write bandwidth in MiByte/s
system.mem_ctrls0.peakBW                     12800.00                       # Theoretical peak bandwidth in MiByte/s
system.mem_ctrls0.busUtil                        1.52                       # Data bus utilization in percentage
system.mem_ctrls0.busUtilRead                    0.94                       # Data bus utilization in percentage for reads
system.mem_ctrls0.busUtilWrite                   0.58                       # Data bus utilization in percentage for writes
system.mem_ctrls0.avgRdQLen                      1.12                       # Average read queue length when enqueuing
system.mem_ctrls0.avgWrQLen                      2.87                       # Average write queue length when enqueuing
system.mem_ctrls0.readRowHits                   56199                       # Number of row buffer hits during reads
system.mem_ctrls0.writeRowHits                  29408                       # Number of row buffer hits during writes
system.mem_ctrls0.readRowHitRate                76.73                       # Row buffer hit rate for reads
system.mem_ctrls0.writeRowHitRate               65.76                       # Row buffer hit rate for writes
system.mem_ctrls0.avgGap                    329139.97                       # Average gap between requests
system.mem_ctrls0.pageHitRate                   72.57                       # Row buffer hit rate, read and write combined
system.mem_ctrls0.memoryStateTime::IDLE   10429338000                       # Time in different power states
system.mem_ctrls0.memoryStateTime::REF     1296620000                       # Time in different power states
system.mem_ctrls0.memoryStateTime::PRE_PDN            0                       # Time in different power states
system.mem_ctrls0.memoryStateTime::ACT    27104344500                       # Time in different power states
system.mem_ctrls0.memoryStateTime::ACT_PDN            0                       # Time in different power states
system.mem_ctrls0.actEnergy::0              126509040                       # Energy for activate commands per rank (pJ)
system.mem_ctrls0.actEnergy::1              118072080                       # Energy for activate commands per rank (pJ)
system.mem_ctrls0.preEnergy::0               69027750                       # Energy for precharge commands per rank (pJ)
system.mem_ctrls0.preEnergy::1               64424250                       # Energy for precharge commands per rank (pJ)
system.mem_ctrls0.readEnergy::0             289949400                       # Energy for read commands per rank (pJ)
system.mem_ctrls0.readEnergy::1             281275800                       # Energy for read commands per rank (pJ)
system.mem_ctrls0.writeEnergy::0            146823840                       # Energy for write commands per rank (pJ)
system.mem_ctrls0.writeEnergy::1            142955280                       # Energy for write commands per rank (pJ)
system.mem_ctrls0.refreshEnergy::0         2536188720                       # Energy for refresh commands per rank (pJ)
system.mem_ctrls0.refreshEnergy::1         2536188720                       # Energy for refresh commands per rank (pJ)
system.mem_ctrls0.actBackEnergy::0        14175801675                       # Energy for active background per rank (pJ)
system.mem_ctrls0.actBackEnergy::1        13803931395                       # Energy for active background per rank (pJ)
system.mem_ctrls0.preBackEnergy::0        10863259500                       # Energy for precharge background per rank (pJ)
system.mem_ctrls0.preBackEnergy::1        11189461500                       # Energy for precharge background per rank (pJ)
system.mem_ctrls0.totalEnergy::0          28207559925                       # Total energy per rank (pJ)
system.mem_ctrls0.totalEnergy::1          28136309025                       # Total energy per rank (pJ)
system.mem_ctrls0.averagePower::0          726.431887                       # Core power per rank (mW)
system.mem_ctrls0.averagePower::1          724.596956                       # Core power per rank (mW)
system.mem_ctrls1.bytes_read::ruby.dir_cntrl1      4564288                       # Number of bytes read from this memory
system.mem_ctrls1.bytes_read::total           4564288                       # Number of bytes read from this memory
system.mem_ctrls1.bytes_written::ruby.dir_cntrl1      2746624                       # Number of bytes written to this memory
system.mem_ctrls1.bytes_written::total        2746624                       # Number of bytes written to this memory
system.mem_ctrls1.num_reads::ruby.dir_cntrl1        71317                       # Number of read requests responded to by this memory
system.mem_ctrls1.num_reads::total              71317                       # Number of read requests responded to by this memory
system.mem_ctrls1.num_writes::ruby.dir_cntrl1        42916                       # Number of write requests responded to by this memory
system.mem_ctrls1.num_writes::total             42916                       # Number of write requests responded to by this memory
system.mem_ctrls1.bw_read::ruby.dir_cntrl1    117537003                       # Total read bandwidth from this memory (bytes/s)
system.mem_ctrls1.bw_read::total            117537003                       # Total read bandwidth from this memory (bytes/s)
system.mem_ctrls1.bw_write::ruby.dir_cntrl1     70729532                       # Write bandwidth from this memory (bytes/s)
system.mem_ctrls1.bw_write::total            70729532                       # Write bandwidth from this memory (bytes/s)
system.mem_ctrls1.bw_total::ruby.dir_cntrl1    188266535                       # Total bandwidth to/from this memory (bytes/s)
system.mem_ctrls1.bw_total::total           188266535                       # Total bandwidth to/from this memory (bytes/s)
system.mem_ctrls1.readReqs                      71317                       # Number of read requests accepted
system.mem_ctrls1.writeReqs                     42916                       # Number of write requests accepted
system.mem_ctrls1.readBursts                    71317                       # Number of DRAM read bursts, including those serviced by the write queue
system.mem_ctrls1.writeBursts                   42916                       # Number of DRAM write bursts, including those merged in the write queue
system.mem_ctrls1.bytesReadDRAM               4563328                       # Total number of bytes read from DRAM
system.mem_ctrls1.bytesReadWrQ                    960                       # Total number of bytes read from write queue
system.mem_ctrls1.bytesWritten                2746368                       # Total number of bytes written to DRAM
system.mem_ctrls1.bytesReadSys                4564288                       # Total read bytes from the system interface side
system.mem_ctrls1.bytesWrittenSys             2746624                       # Total written bytes from the system interface side
system.mem_ctrls1.servicedByWrQ                    15                       # Number of DRAM read bursts serviced by the write queue
system.mem_ctrls1.mergedWrBursts                    0                       # Number of DRAM write bursts merged with an existing one
system.mem_ctrls1.neitherReadNorWriteReqs            0                       # Number of requests that are neither read nor write
system.mem_ctrls1.perBankRdBursts::0             4309                       # Per bank write bursts
system.mem_ctrls1.perBankRdBursts::1             4752                       # Per bank write bursts
system.mem_ctrls1.perBankRdBursts::2             4420                       # Per bank write bursts
system.mem_ctrls1.perBankRdBursts::3             4767                       # Per bank write bursts
system.mem_ctrls1.perBankRdBursts::4             4524                       # Per bank write bursts
system.mem_ctrls1.perBankRdBursts::5             4631                       # Per bank write bursts
system.mem_ctrls1.perBankRdBursts::6             4426                       # Per bank write bursts
system.mem_ctrls1.perBankRdBursts::7             4426                       # Per bank write bursts
system.mem_ctrls1.perBankRdBursts::8             4377                       # Per bank write bursts
system.mem_ctrls1.perBankRdBursts::9             4671                       # Per bank write bursts
system.mem_ctrls1.perBankRdBursts::10            4400                       # Per bank write bursts
system.mem_ctrls1.perBankRdBursts::11            4614                       # Per bank write bursts
system.mem_ctrls1.perBankRdBursts::12            4228                       # Per bank write bursts
system.mem_ctrls1.perBankRdBursts::13            4084                       # Per bank write bursts
system.mem_ctrls1.perBankRdBursts::14            4274                       # Per bank write bursts
system.mem_ctrls1.perBankRdBursts::15            4399                       # Per bank write bursts
system.mem_ctrls1.perBankWrBursts::0             2710                       # Per bank write bursts
system.mem_ctrls1.perBankWrBursts::1             2714                       # Per bank write bursts
system.mem_ctrls1.perBankWrBursts::2             2691                       # Per bank write bursts
system.mem_ctrls1.perBankWrBursts::3             2773                       # Per bank write bursts
system.mem_ctrls1.perBankWrBursts::4             2699                       # Per bank write bursts
system.mem_ctrls1.perBankWrBursts::5             2829                       # Per bank write bursts
system.mem_ctrls1.perBankWrBursts::6             2643                       # Per bank write bursts
system.mem_ctrls1.perBankWrBursts::7             2732                       # Per bank write bursts
system.mem_ctrls1.perBankWrBursts::8             2629                       # Per bank write bursts
system.mem_ctrls1.perBankWrBursts::9             2805                       # Per bank write bursts
system.mem_ctrls1.perBankWrBursts::10            2661                       # Per bank write bursts
system.mem_ctrls1.perBankWrBursts::11            2586                       # Per bank write bursts
system.mem_ctrls1.perBankWrBursts::12            2527                       # Per bank write bursts
system.mem_ctrls1.perBankWrBursts::13            2553                       # Per bank write bursts
system.mem_ctrls1.perBankWrBursts::14            2708                       # Per bank write bursts
system.mem_ctrls1.perBankWrBursts::15            2652                       # Per bank write bursts
system.mem_ctrls1.numRdRetry                      380                       # Number of times read queue was full causing retry
system.mem_ctrls1.numWrRetry                     2117                       # Number of times write queue was full causing retry
system.mem_ctrls1.totGap                  38832010500                       # Total gap between requests
system.mem_ctrls1.readPktSize::0                    0                       # Read request sizes (log2)
system.mem_ctrls1.readPktSize::1                    0                       # Read request sizes (log2)
system.mem_ctrls1.readPktSize::2                    0                       # Read request sizes (log2)
system.mem_ctrls1.readPktSize::3                    0                       # Read request sizes (log2)
system.mem_ctrls1.readPktSize::4                    0                       # Read request sizes (log2)
system.mem_ctrls1.readPktSize::5                    0                       # Read request sizes (log2)
system.mem_ctrls1.readPktSize::6                71317                       # Read request sizes (log2)
system.mem_ctrls1.writePktSize::0                   0                       # Write request sizes (log2)
system.mem_ctrls1.writePktSize::1                   0                       # Write request sizes (log2)
system.mem_ctrls1.writePktSize::2                   0                       # Write request sizes (log2)
system.mem_ctrls1.writePktSize::3                   0                       # Write request sizes (log2)
system.mem_ctrls1.writePktSize::4                   0                       # Write request sizes (log2)
system.mem_ctrls1.writePktSize::5                   0                       # Write request sizes (log2)
system.mem_ctrls1.writePktSize::6               42916                       # Write request sizes (log2)
system.mem_ctrls1.rdQLenPdf::0                  44917                       # What read queue length does an incoming req see
system.mem_ctrls1.rdQLenPdf::1                   3794                       # What read queue length does an incoming req see
system.mem_ctrls1.rdQLenPdf::2                   3308                       # What read queue length does an incoming req see
system.mem_ctrls1.rdQLenPdf::3                   2886                       # What read queue length does an incoming req see
system.mem_ctrls1.rdQLenPdf::4                   2348                       # What read queue length does an incoming req see
system.mem_ctrls1.rdQLenPdf::5                   1876                       # What read queue length does an incoming req see
system.mem_ctrls1.rdQLenPdf::6                   1616                       # What read queue length does an incoming req see
system.mem_ctrls1.rdQLenPdf::7                   1316                       # What read queue length does an incoming req see
system.mem_ctrls1.rdQLenPdf::8                   1141                       # What read queue length does an incoming req see
system.mem_ctrls1.rdQLenPdf::9                    948                       # What read queue length does an incoming req see
system.mem_ctrls1.rdQLenPdf::10                   844                       # What read queue length does an incoming req see
system.mem_ctrls1.rdQLenPdf::11                   719                       # What read queue length does an incoming req see
system.mem_ctrls1.rdQLenPdf::12                   655                       # What read queue length does an incoming req see
system.mem_ctrls1.rdQLenPdf::13                   551                       # What read queue length does an incoming req see
system.mem_ctrls1.rdQLenPdf::14                   461                       # What read queue length does an incoming req see
system.mem_ctrls1.rdQLenPdf::15                   365                       # What read queue length does an incoming req see
system.mem_ctrls1.rdQLenPdf::16                   368                       # What read queue length does an incoming req see
system.mem_ctrls1.rdQLenPdf::17                   344                       # What read queue length does an incoming req see
system.mem_ctrls1.rdQLenPdf::18                   300                       # What read queue length does an incoming req see
system.mem_ctrls1.rdQLenPdf::19                   302                       # What read queue length does an incoming req see
system.mem_ctrls1.rdQLenPdf::20                   253                       # What read queue length does an incoming req see
system.mem_ctrls1.rdQLenPdf::21                   201                       # What read queue length does an incoming req see
system.mem_ctrls1.rdQLenPdf::22                   195                       # What read queue length does an incoming req see
system.mem_ctrls1.rdQLenPdf::23                   171                       # What read queue length does an incoming req see
system.mem_ctrls1.rdQLenPdf::24                   158                       # What read queue length does an incoming req see
system.mem_ctrls1.rdQLenPdf::25                   150                       # What read queue length does an incoming req see
system.mem_ctrls1.rdQLenPdf::26                   139                       # What read queue length does an incoming req see
system.mem_ctrls1.rdQLenPdf::27                   128                       # What read queue length does an incoming req see
system.mem_ctrls1.rdQLenPdf::28                   123                       # What read queue length does an incoming req see
system.mem_ctrls1.rdQLenPdf::29                   122                       # What read queue length does an incoming req see
system.mem_ctrls1.rdQLenPdf::30                   104                       # What read queue length does an incoming req see
system.mem_ctrls1.rdQLenPdf::31                   499                       # What read queue length does an incoming req see
system.mem_ctrls1.wrQLenPdf::0                   7418                       # What write queue length does an incoming req see
system.mem_ctrls1.wrQLenPdf::1                   7614                       # What write queue length does an incoming req see
system.mem_ctrls1.wrQLenPdf::2                   7762                       # What write queue length does an incoming req see
system.mem_ctrls1.wrQLenPdf::3                   7906                       # What write queue length does an incoming req see
system.mem_ctrls1.wrQLenPdf::4                   7956                       # What write queue length does an incoming req see
system.mem_ctrls1.wrQLenPdf::5                    743                       # What write queue length does an incoming req see
system.mem_ctrls1.wrQLenPdf::6                    730                       # What write queue length does an incoming req see
system.mem_ctrls1.wrQLenPdf::7                   2787                       # What write queue length does an incoming req see
system.mem_ctrls1.bytesPerActivate::samples        28577                       # Bytes accessed per row activation
system.mem_ctrls1.bytesPerActivate::mean   255.764846                       # Bytes accessed per row activation
system.mem_ctrls1.bytesPerActivate::gmean   176.088562                       # Bytes accessed per row activation
system.mem_ctrls1.bytesPerActivate::stdev   240.919958                       # Bytes accessed per row activation
system.mem_ctrls1.bytesPerActivate::0-127         9251     32.37%     32.37% # Bytes accessed per row activation
system.mem_ctrls1.bytesPerActivate::128-255         6671     23.34%     55.72% # Bytes accessed per row activation
system.mem_ctrls1.bytesPerActivate::256-383         7976     27.91%     83.63% # Bytes accessed per row activation
system.mem_ctrls1.bytesPerActivate::384-511         1197      4.19%     87.82% # Bytes accessed per row activation
system.mem_ctrls1.bytesPerActivate::512-639          861      3.01%     90.83% # Bytes accessed per row activation
system.mem_ctrls1.bytesPerActivate::640-767          543      1.90%     92.73% # Bytes accessed per row activation
system.mem_ctrls1.bytesPerActivate::768-895          467      1.63%     94.36% # Bytes accessed per row activation
system.mem_ctrls1.bytesPerActivate::896-1023          464      1.62%     95.99% # Bytes accessed per row activation
system.mem_ctrls1.bytesPerActivate::1024-1151         1147      4.01%    100.00% # Bytes accessed per row activation
system.mem_ctrls1.bytesPerActivate::total        28577                       # Bytes accessed per row activation
system.mem_ctrls1.rdPerTurnAround::samples         7638                       # Reads before turning the bus around for writes
system.mem_ctrls1.rdPerTurnAround::mean      9.329798                       # Reads before turning the bus around for writes
system.mem_ctrls1.rdPerTurnAround::stdev    37.422845                       # Reads before turning the bus around for writes
system.mem_ctrls1.rdPerTurnAround::0-127         7630     99.90%     99.90% # Reads before turning the bus around for writes
system.mem_ctrls1.rdPerTurnAround::128-255            6      0.08%     99.97% # Reads before turning the bus around for writes
system.mem_ctrls1.rdPerTurnAround::1152-1279            1      0.01%     99.99% # Reads before turning the bus around for writes
system.mem_ctrls1.rdPerTurnAround::2816-2943            1      0.01%    100.00% # Reads before turning the bus around for writes
system.mem_ctrls1.rdPerTurnAround::total         7638                       # Reads before turning the bus around for writes
system.mem_ctrls1.wrPerTurnAround::samples         7638                       # Writes before turning the bus around for reads
system.mem_ctrls1.wrPerTurnAround::mean      5.618225                       # Writes before turning the bus around for reads
system.mem_ctrls1.wrPerTurnAround::gmean     5.385961                       # Writes before turning the bus around for reads
system.mem_ctrls1.wrPerTurnAround::stdev     2.225495                       # Writes before turning the bus around for reads
system.mem_ctrls1.wrPerTurnAround::4-7           7121     93.23%     93.23% # Writes before turning the bus around for reads
system.mem_ctrls1.wrPerTurnAround::8-11           162      2.12%     95.35% # Writes before turning the bus around for reads
system.mem_ctrls1.wrPerTurnAround::12-15          114      1.49%     96.84% # Writes before turning the bus around for reads
system.mem_ctrls1.wrPerTurnAround::16-19          241      3.16%    100.00% # Writes before turning the bus around for reads
system.mem_ctrls1.wrPerTurnAround::total         7638                       # Writes before turning the bus around for reads
system.mem_ctrls1.totQLat                  3084139645                       # Total ticks spent queuing
system.mem_ctrls1.totMemAccLat             4421052145                       # Total ticks spent from burst creation until serviced by the DRAM
system.mem_ctrls1.totBusLat                 356510000                       # Total ticks spent in databus transfers
system.mem_ctrls1.avgQLat                    43254.60                       # Average queueing delay per DRAM burst
system.mem_ctrls1.avgBusLat                   5000.00                       # Average bus latency per DRAM burst
system.mem_ctrls1.avgMemAccLat               62004.60                       # Average memory access latency per DRAM burst
system.mem_ctrls1.avgRdBW                      117.51                       # Average DRAM read bandwidth in MiByte/s
system.mem_ctrls1.avgWrBW                       70.72                       # Average achieved write bandwidth in MiByte/s
system.mem_ctrls1.avgRdBWSys                   117.54                       # Average system read bandwidth in MiByte/s
system.mem_ctrls1.avgWrBWSys                    70.73                       # Average system write bandwidth in MiByte/s
system.mem_ctrls1.peakBW                     12800.00                       # Theoretical peak bandwidth in MiByte/s
system.mem_ctrls1.busUtil                        1.47                       # Data bus utilization in percentage
system.mem_ctrls1.busUtilRead                    0.92                       # Data bus utilization in percentage for reads
system.mem_ctrls1.busUtilWrite                   0.55                       # Data bus utilization in percentage for writes
system.mem_ctrls1.avgRdQLen                      1.11                       # Average read queue length when enqueuing
system.mem_ctrls1.avgWrQLen                      2.86                       # Average write queue length when enqueuing
system.mem_ctrls1.readRowHits                   55799                       # Number of row buffer hits during reads
system.mem_ctrls1.writeRowHits                  29835                       # Number of row buffer hits during writes
system.mem_ctrls1.readRowHitRate                78.26                       # Row buffer hit rate for reads
system.mem_ctrls1.writeRowHitRate               69.52                       # Row buffer hit rate for writes
system.mem_ctrls1.avgGap                    339936.89                       # Average gap between requests
system.mem_ctrls1.pageHitRate                   74.97                       # Row buffer hit rate, read and write combined
system.mem_ctrls1.memoryStateTime::IDLE   10617821500                       # Time in different power states
system.mem_ctrls1.memoryStateTime::REF     1296620000                       # Time in different power states
system.mem_ctrls1.memoryStateTime::PRE_PDN            0                       # Time in different power states
system.mem_ctrls1.memoryStateTime::ACT    26915994500                       # Time in different power states
system.mem_ctrls1.memoryStateTime::ACT_PDN            0                       # Time in different power states
system.mem_ctrls1.actEnergy::0              112764960                       # Energy for activate commands per rank (pJ)
system.mem_ctrls1.actEnergy::1              103269600                       # Energy for activate commands per rank (pJ)
system.mem_ctrls1.preEnergy::0               61528500                       # Energy for precharge commands per rank (pJ)
system.mem_ctrls1.preEnergy::1               56347500                       # Energy for precharge commands per rank (pJ)
system.mem_ctrls1.readEnergy::0             282757800                       # Energy for read commands per rank (pJ)
system.mem_ctrls1.readEnergy::1             273296400                       # Energy for read commands per rank (pJ)
system.mem_ctrls1.writeEnergy::0            141205680                       # Energy for write commands per rank (pJ)
system.mem_ctrls1.writeEnergy::1            136864080                       # Energy for write commands per rank (pJ)
system.mem_ctrls1.refreshEnergy::0         2536188720                       # Energy for refresh commands per rank (pJ)
system.mem_ctrls1.refreshEnergy::1         2536188720                       # Energy for refresh commands per rank (pJ)
system.mem_ctrls1.actBackEnergy::0        14045983605                       # Energy for active background per rank (pJ)
system.mem_ctrls1.actBackEnergy::1        13368911670                       # Energy for active background per rank (pJ)
system.mem_ctrls1.preBackEnergy::0        10977135000                       # Energy for precharge background per rank (pJ)
system.mem_ctrls1.preBackEnergy::1        11571057750                       # Energy for precharge background per rank (pJ)
system.mem_ctrls1.totalEnergy::0          28157564265                       # Total energy per rank (pJ)
system.mem_ctrls1.totalEnergy::1          28045935720                       # Total energy per rank (pJ)
system.mem_ctrls1.averagePower::0          725.144344                       # Core power per rank (mW)
system.mem_ctrls1.averagePower::1          722.269564                       # Core power per rank (mW)
system.mem_ctrls2.bytes_read::ruby.dir_cntrl2      4566656                       # Number of bytes read from this memory
system.mem_ctrls2.bytes_read::total           4566656                       # Number of bytes read from this memory
system.mem_ctrls2.bytes_written::ruby.dir_cntrl2      2748160                       # Number of bytes written to this memory
system.mem_ctrls2.bytes_written::total        2748160                       # Number of bytes written to this memory
system.mem_ctrls2.num_reads::ruby.dir_cntrl2        71354                       # Number of read requests responded to by this memory
system.mem_ctrls2.num_reads::total              71354                       # Number of read requests responded to by this memory
system.mem_ctrls2.num_writes::ruby.dir_cntrl2        42940                       # Number of write requests responded to by this memory
system.mem_ctrls2.num_writes::total             42940                       # Number of write requests responded to by this memory
system.mem_ctrls2.bw_read::ruby.dir_cntrl2    117597983                       # Total read bandwidth from this memory (bytes/s)
system.mem_ctrls2.bw_read::total            117597983                       # Total read bandwidth from this memory (bytes/s)
system.mem_ctrls2.bw_write::ruby.dir_cntrl2     70769086                       # Write bandwidth from this memory (bytes/s)
system.mem_ctrls2.bw_write::total            70769086                       # Write bandwidth from this memory (bytes/s)
system.mem_ctrls2.bw_total::ruby.dir_cntrl2    188367069                       # Total bandwidth to/from this memory (bytes/s)
system.mem_ctrls2.bw_total::total           188367069                       # Total bandwidth to/from this memory (bytes/s)
system.mem_ctrls2.readReqs                      71354                       # Number of read requests accepted
system.mem_ctrls2.writeReqs                     42940                       # Number of write requests accepted
system.mem_ctrls2.readBursts                    71354                       # Number of DRAM read bursts, including those serviced by the write queue
system.mem_ctrls2.writeBursts                   42940                       # Number of DRAM write bursts, including those merged in the write queue
system.mem_ctrls2.bytesReadDRAM               4565760                       # Total number of bytes read from DRAM
system.mem_ctrls2.bytesReadWrQ                    896                       # Total number of bytes read from write queue
system.mem_ctrls2.bytesWritten                2748160                       # Total number of bytes written to DRAM
system.mem_ctrls2.bytesReadSys                4566656                       # Total read bytes from the system interface side
system.mem_ctrls2.bytesWrittenSys             2748160                       # Total written bytes from the system interface side
system.mem_ctrls2.servicedByWrQ                    14                       # Number of DRAM read bursts serviced by the write queue
system.mem_ctrls2.mergedWrBursts                    0                       # Number of DRAM write bursts merged with an existing one
system.mem_ctrls2.neitherReadNorWriteReqs            0                       # Number of requests that are neither read nor write
system.mem_ctrls2.perBankRdBursts::0             4292                       # Per bank write bursts
system.mem_ctrls2.perBankRdBursts::1             4781                       # Per bank write bursts
system.mem_ctrls2.perBankRdBursts::2             4434                       # Per bank write bursts
system.mem_ctrls2.perBankRdBursts::3             4798                       # Per bank write bursts
system.mem_ctrls2.perBankRdBursts::4             4535                       # Per bank write bursts
system.mem_ctrls2.perBankRdBursts::5             4626                       # Per bank write bursts
system.mem_ctrls2.perBankRdBursts::6             4418                       # Per bank write bursts
system.mem_ctrls2.perBankRdBursts::7             4419                       # Per bank write bursts
system.mem_ctrls2.perBankRdBursts::8             4358                       # Per bank write bursts
system.mem_ctrls2.perBankRdBursts::9             4653                       # Per bank write bursts
system.mem_ctrls2.perBankRdBursts::10            4395                       # Per bank write bursts
system.mem_ctrls2.perBankRdBursts::11            4652                       # Per bank write bursts
system.mem_ctrls2.perBankRdBursts::12            4240                       # Per bank write bursts
system.mem_ctrls2.perBankRdBursts::13            4073                       # Per bank write bursts
system.mem_ctrls2.perBankRdBursts::14            4263                       # Per bank write bursts
system.mem_ctrls2.perBankRdBursts::15            4403                       # Per bank write bursts
system.mem_ctrls2.perBankWrBursts::0             2703                       # Per bank write bursts
system.mem_ctrls2.perBankWrBursts::1             2712                       # Per bank write bursts
system.mem_ctrls2.perBankWrBursts::2             2688                       # Per bank write bursts
system.mem_ctrls2.perBankWrBursts::3             2789                       # Per bank write bursts
system.mem_ctrls2.perBankWrBursts::4             2697                       # Per bank write bursts
system.mem_ctrls2.perBankWrBursts::5             2822                       # Per bank write bursts
system.mem_ctrls2.perBankWrBursts::6             2646                       # Per bank write bursts
system.mem_ctrls2.perBankWrBursts::7             2734                       # Per bank write bursts
system.mem_ctrls2.perBankWrBursts::8             2629                       # Per bank write bursts
system.mem_ctrls2.perBankWrBursts::9             2811                       # Per bank write bursts
system.mem_ctrls2.perBankWrBursts::10            2656                       # Per bank write bursts
system.mem_ctrls2.perBankWrBursts::11            2599                       # Per bank write bursts
system.mem_ctrls2.perBankWrBursts::12            2537                       # Per bank write bursts
system.mem_ctrls2.perBankWrBursts::13            2548                       # Per bank write bursts
system.mem_ctrls2.perBankWrBursts::14            2715                       # Per bank write bursts
system.mem_ctrls2.perBankWrBursts::15            2654                       # Per bank write bursts
system.mem_ctrls2.numRdRetry                      307                       # Number of times read queue was full causing retry
system.mem_ctrls2.numWrRetry                     2161                       # Number of times write queue was full causing retry
system.mem_ctrls2.totGap                  38832250000                       # Total gap between requests
system.mem_ctrls2.readPktSize::0                    0                       # Read request sizes (log2)
system.mem_ctrls2.readPktSize::1                    0                       # Read request sizes (log2)
system.mem_ctrls2.readPktSize::2                    0                       # Read request sizes (log2)
system.mem_ctrls2.readPktSize::3                    0                       # Read request sizes (log2)
system.mem_ctrls2.readPktSize::4                    0                       # Read request sizes (log2)
system.mem_ctrls2.readPktSize::5                    0                       # Read request sizes (log2)
system.mem_ctrls2.readPktSize::6                71354                       # Read request sizes (log2)
system.mem_ctrls2.writePktSize::0                   0                       # Write request sizes (log2)
system.mem_ctrls2.writePktSize::1                   0                       # Write request sizes (log2)
system.mem_ctrls2.writePktSize::2                   0                       # Write request sizes (log2)
system.mem_ctrls2.writePktSize::3                   0                       # Write request sizes (log2)
system.mem_ctrls2.writePktSize::4                   0                       # Write request sizes (log2)
system.mem_ctrls2.writePktSize::5                   0                       # Write request sizes (log2)
system.mem_ctrls2.writePktSize::6               42940                       # Write request sizes (log2)
system.mem_ctrls2.rdQLenPdf::0                  45151                       # What read queue length does an incoming req see
system.mem_ctrls2.rdQLenPdf::1                   3868                       # What read queue length does an incoming req see
system.mem_ctrls2.rdQLenPdf::2                   3410                       # What read queue length does an incoming req see
system.mem_ctrls2.rdQLenPdf::3                   2955                       # What read queue length does an incoming req see
system.mem_ctrls2.rdQLenPdf::4                   2375                       # What read queue length does an incoming req see
system.mem_ctrls2.rdQLenPdf::5                   1837                       # What read queue length does an incoming req see
system.mem_ctrls2.rdQLenPdf::6                   1546                       # What read queue length does an incoming req see
system.mem_ctrls2.rdQLenPdf::7                   1275                       # What read queue length does an incoming req see
system.mem_ctrls2.rdQLenPdf::8                   1044                       # What read queue length does an incoming req see
system.mem_ctrls2.rdQLenPdf::9                    937                       # What read queue length does an incoming req see
system.mem_ctrls2.rdQLenPdf::10                   824                       # What read queue length does an incoming req see
system.mem_ctrls2.rdQLenPdf::11                   723                       # What read queue length does an incoming req see
system.mem_ctrls2.rdQLenPdf::12                   612                       # What read queue length does an incoming req see
system.mem_ctrls2.rdQLenPdf::13                   554                       # What read queue length does an incoming req see
system.mem_ctrls2.rdQLenPdf::14                   450                       # What read queue length does an incoming req see
system.mem_ctrls2.rdQLenPdf::15                   413                       # What read queue length does an incoming req see
system.mem_ctrls2.rdQLenPdf::16                   383                       # What read queue length does an incoming req see
system.mem_ctrls2.rdQLenPdf::17                   324                       # What read queue length does an incoming req see
system.mem_ctrls2.rdQLenPdf::18                   284                       # What read queue length does an incoming req see
system.mem_ctrls2.rdQLenPdf::19                   268                       # What read queue length does an incoming req see
system.mem_ctrls2.rdQLenPdf::20                   218                       # What read queue length does an incoming req see
system.mem_ctrls2.rdQLenPdf::21                   227                       # What read queue length does an incoming req see
system.mem_ctrls2.rdQLenPdf::22                   196                       # What read queue length does an incoming req see
system.mem_ctrls2.rdQLenPdf::23                   176                       # What read queue length does an incoming req see
system.mem_ctrls2.rdQLenPdf::24                   162                       # What read queue length does an incoming req see
system.mem_ctrls2.rdQLenPdf::25                   160                       # What read queue length does an incoming req see
system.mem_ctrls2.rdQLenPdf::26                   149                       # What read queue length does an incoming req see
system.mem_ctrls2.rdQLenPdf::27                   143                       # What read queue length does an incoming req see
system.mem_ctrls2.rdQLenPdf::28                   110                       # What read queue length does an incoming req see
system.mem_ctrls2.rdQLenPdf::29                    84                       # What read queue length does an incoming req see
system.mem_ctrls2.rdQLenPdf::30                    85                       # What read queue length does an incoming req see
system.mem_ctrls2.rdQLenPdf::31                   397                       # What read queue length does an incoming req see
system.mem_ctrls2.wrQLenPdf::0                   7433                       # What write queue length does an incoming req see
system.mem_ctrls2.wrQLenPdf::1                   7638                       # What write queue length does an incoming req see
system.mem_ctrls2.wrQLenPdf::2                   7776                       # What write queue length does an incoming req see
system.mem_ctrls2.wrQLenPdf::3                   7901                       # What write queue length does an incoming req see
system.mem_ctrls2.wrQLenPdf::4                   8018                       # What write queue length does an incoming req see
system.mem_ctrls2.wrQLenPdf::5                    730                       # What write queue length does an incoming req see
system.mem_ctrls2.wrQLenPdf::6                    683                       # What write queue length does an incoming req see
system.mem_ctrls2.wrQLenPdf::7                   2761                       # What write queue length does an incoming req see
system.mem_ctrls2.bytesPerActivate::samples        28563                       # Bytes accessed per row activation
system.mem_ctrls2.bytesPerActivate::mean   256.049295                       # Bytes accessed per row activation
system.mem_ctrls2.bytesPerActivate::gmean   176.313086                       # Bytes accessed per row activation
system.mem_ctrls2.bytesPerActivate::stdev   240.904409                       # Bytes accessed per row activation
system.mem_ctrls2.bytesPerActivate::0-127         9279     32.49%     32.49% # Bytes accessed per row activation
system.mem_ctrls2.bytesPerActivate::128-255         6573     23.01%     55.50% # Bytes accessed per row activation
system.mem_ctrls2.bytesPerActivate::256-383         8129     28.46%     83.96% # Bytes accessed per row activation
system.mem_ctrls2.bytesPerActivate::384-511         1086      3.80%     87.76% # Bytes accessed per row activation
system.mem_ctrls2.bytesPerActivate::512-639          811      2.84%     90.60% # Bytes accessed per row activation
system.mem_ctrls2.bytesPerActivate::640-767          646      2.26%     92.86% # Bytes accessed per row activation
system.mem_ctrls2.bytesPerActivate::768-895          434      1.52%     94.38% # Bytes accessed per row activation
system.mem_ctrls2.bytesPerActivate::896-1023          441      1.54%     95.92% # Bytes accessed per row activation
system.mem_ctrls2.bytesPerActivate::1024-1151         1164      4.08%    100.00% # Bytes accessed per row activation
system.mem_ctrls2.bytesPerActivate::total        28563                       # Bytes accessed per row activation
system.mem_ctrls2.rdPerTurnAround::samples         7655                       # Reads before turning the bus around for writes
system.mem_ctrls2.rdPerTurnAround::mean      9.318877                       # Reads before turning the bus around for writes
system.mem_ctrls2.rdPerTurnAround::stdev    37.491033                       # Reads before turning the bus around for writes
system.mem_ctrls2.rdPerTurnAround::0-127         7650     99.93%     99.93% # Reads before turning the bus around for writes
system.mem_ctrls2.rdPerTurnAround::128-255            3      0.04%     99.97% # Reads before turning the bus around for writes
system.mem_ctrls2.rdPerTurnAround::1152-1279            1      0.01%     99.99% # Reads before turning the bus around for writes
system.mem_ctrls2.rdPerTurnAround::2816-2943            1      0.01%    100.00% # Reads before turning the bus around for writes
system.mem_ctrls2.rdPerTurnAround::total         7655                       # Reads before turning the bus around for writes
system.mem_ctrls2.wrPerTurnAround::samples         7655                       # Writes before turning the bus around for reads
system.mem_ctrls2.wrPerTurnAround::mean      5.609406                       # Writes before turning the bus around for reads
system.mem_ctrls2.wrPerTurnAround::gmean     5.378595                       # Writes before turning the bus around for reads
system.mem_ctrls2.wrPerTurnAround::stdev     2.223298                       # Writes before turning the bus around for reads
system.mem_ctrls2.wrPerTurnAround::4-7           7150     93.40%     93.40% # Writes before turning the bus around for reads
system.mem_ctrls2.wrPerTurnAround::8-11           156      2.04%     95.44% # Writes before turning the bus around for reads
system.mem_ctrls2.wrPerTurnAround::12-15          104      1.36%     96.80% # Writes before turning the bus around for reads
system.mem_ctrls2.wrPerTurnAround::16-19          245      3.20%    100.00% # Writes before turning the bus around for reads
system.mem_ctrls2.wrPerTurnAround::total         7655                       # Writes before turning the bus around for reads
system.mem_ctrls2.totQLat                  3059261198                       # Total ticks spent queuing
system.mem_ctrls2.totMemAccLat             4396886198                       # Total ticks spent from burst creation until serviced by the DRAM
system.mem_ctrls2.totBusLat                 356700000                       # Total ticks spent in databus transfers
system.mem_ctrls2.avgQLat                    42882.83                       # Average queueing delay per DRAM burst
system.mem_ctrls2.avgBusLat                   5000.00                       # Average bus latency per DRAM burst
system.mem_ctrls2.avgMemAccLat               61632.83                       # Average memory access latency per DRAM burst
system.mem_ctrls2.avgRdBW                      117.57                       # Average DRAM read bandwidth in MiByte/s
system.mem_ctrls2.avgWrBW                       70.77                       # Average achieved write bandwidth in MiByte/s
system.mem_ctrls2.avgRdBWSys                   117.60                       # Average system read bandwidth in MiByte/s
system.mem_ctrls2.avgWrBWSys                    70.77                       # Average system write bandwidth in MiByte/s
system.mem_ctrls2.peakBW                     12800.00                       # Theoretical peak bandwidth in MiByte/s
system.mem_ctrls2.busUtil                        1.47                       # Data bus utilization in percentage
system.mem_ctrls2.busUtilRead                    0.92                       # Data bus utilization in percentage for reads
system.mem_ctrls2.busUtilWrite                   0.55                       # Data bus utilization in percentage for writes
system.mem_ctrls2.avgRdQLen                      1.10                       # Average read queue length when enqueuing
system.mem_ctrls2.avgWrQLen                      2.88                       # Average write queue length when enqueuing
system.mem_ctrls2.readRowHits                   55798                       # Number of row buffer hits during reads
system.mem_ctrls2.writeRowHits                  29916                       # Number of row buffer hits during writes
system.mem_ctrls2.readRowHitRate                78.21                       # Row buffer hit rate for reads
system.mem_ctrls2.writeRowHitRate               69.67                       # Row buffer hit rate for writes
system.mem_ctrls2.avgGap                    339757.56                       # Average gap between requests
system.mem_ctrls2.pageHitRate                   75.00                       # Row buffer hit rate, read and write combined
system.mem_ctrls2.memoryStateTime::IDLE   10522935000                       # Time in different power states
system.mem_ctrls2.memoryStateTime::REF     1296620000                       # Time in different power states
system.mem_ctrls2.memoryStateTime::PRE_PDN            0                       # Time in different power states
system.mem_ctrls2.memoryStateTime::ACT    27010747500                       # Time in different power states
system.mem_ctrls2.memoryStateTime::ACT_PDN            0                       # Time in different power states
system.mem_ctrls2.actEnergy::0              112870800                       # Energy for activate commands per rank (pJ)
system.mem_ctrls2.actEnergy::1              103027680                       # Energy for activate commands per rank (pJ)
system.mem_ctrls2.preEnergy::0               61586250                       # Energy for precharge commands per rank (pJ)
system.mem_ctrls2.preEnergy::1               56215500                       # Energy for precharge commands per rank (pJ)
system.mem_ctrls2.readEnergy::0             283132200                       # Energy for read commands per rank (pJ)
system.mem_ctrls2.readEnergy::1             273249600                       # Energy for read commands per rank (pJ)
system.mem_ctrls2.writeEnergy::0            141179760                       # Energy for write commands per rank (pJ)
system.mem_ctrls2.writeEnergy::1            137039040                       # Energy for write commands per rank (pJ)
system.mem_ctrls2.refreshEnergy::0         2536188720                       # Energy for refresh commands per rank (pJ)
system.mem_ctrls2.refreshEnergy::1         2536188720                       # Energy for refresh commands per rank (pJ)
system.mem_ctrls2.actBackEnergy::0        14099616900                       # Energy for active background per rank (pJ)
system.mem_ctrls2.actBackEnergy::1        13443094035                       # Energy for active background per rank (pJ)
system.mem_ctrls2.preBackEnergy::0        10930088250                       # Energy for precharge background per rank (pJ)
system.mem_ctrls2.preBackEnergy::1        11505985500                       # Energy for precharge background per rank (pJ)
system.mem_ctrls2.totalEnergy::0          28164662880                       # Total energy per rank (pJ)
system.mem_ctrls2.totalEnergy::1          28054800075                       # Total energy per rank (pJ)
system.mem_ctrls2.averagePower::0          725.327155                       # Core power per rank (mW)
system.mem_ctrls2.averagePower::1          722.497848                       # Core power per rank (mW)
system.mem_ctrls3.bytes_read::ruby.dir_cntrl3      4548544                       # Number of bytes read from this memory
system.mem_ctrls3.bytes_read::total           4548544                       # Number of bytes read from this memory
system.mem_ctrls3.bytes_written::ruby.dir_cntrl3      2743616                       # Number of bytes written to this memory
system.mem_ctrls3.bytes_written::total        2743616                       # Number of bytes written to this memory
system.mem_ctrls3.num_reads::ruby.dir_cntrl3        71071                       # Number of read requests responded to by this memory
system.mem_ctrls3.num_reads::total              71071                       # Number of read requests responded to by this memory
system.mem_ctrls3.num_writes::ruby.dir_cntrl3        42869                       # Number of write requests responded to by this memory
system.mem_ctrls3.num_writes::total             42869                       # Number of write requests responded to by this memory
system.mem_ctrls3.bw_read::ruby.dir_cntrl3    117131572                       # Total read bandwidth from this memory (bytes/s)
system.mem_ctrls3.bw_read::total            117131572                       # Total read bandwidth from this memory (bytes/s)
system.mem_ctrls3.bw_write::ruby.dir_cntrl3     70652072                       # Write bandwidth from this memory (bytes/s)
system.mem_ctrls3.bw_write::total            70652072                       # Write bandwidth from this memory (bytes/s)
system.mem_ctrls3.bw_total::ruby.dir_cntrl3    187783644                       # Total bandwidth to/from this memory (bytes/s)
system.mem_ctrls3.bw_total::total           187783644                       # Total bandwidth to/from this memory (bytes/s)
system.mem_ctrls3.readReqs                      71072                       # Number of read requests accepted
system.mem_ctrls3.writeReqs                     42869                       # Number of write requests accepted
system.mem_ctrls3.readBursts                    71072                       # Number of DRAM read bursts, including those serviced by the write queue
system.mem_ctrls3.writeBursts                   42869                       # Number of DRAM write bursts, including those merged in the write queue
system.mem_ctrls3.bytesReadDRAM               4548160                       # Total number of bytes read from DRAM
system.mem_ctrls3.bytesReadWrQ                    448                       # Total number of bytes read from write queue
system.mem_ctrls3.bytesWritten                2743360                       # Total number of bytes written to DRAM
system.mem_ctrls3.bytesReadSys                4548608                       # Total read bytes from the system interface side
system.mem_ctrls3.bytesWrittenSys             2743616                       # Total written bytes from the system interface side
system.mem_ctrls3.servicedByWrQ                     7                       # Number of DRAM read bursts serviced by the write queue
system.mem_ctrls3.mergedWrBursts                    0                       # Number of DRAM write bursts merged with an existing one
system.mem_ctrls3.neitherReadNorWriteReqs            0                       # Number of requests that are neither read nor write
system.mem_ctrls3.perBankRdBursts::0             4281                       # Per bank write bursts
system.mem_ctrls3.perBankRdBursts::1             4737                       # Per bank write bursts
system.mem_ctrls3.perBankRdBursts::2             4407                       # Per bank write bursts
system.mem_ctrls3.perBankRdBursts::3             4759                       # Per bank write bursts
system.mem_ctrls3.perBankRdBursts::4             4487                       # Per bank write bursts
system.mem_ctrls3.perBankRdBursts::5             4595                       # Per bank write bursts
system.mem_ctrls3.perBankRdBursts::6             4405                       # Per bank write bursts
system.mem_ctrls3.perBankRdBursts::7             4417                       # Per bank write bursts
system.mem_ctrls3.perBankRdBursts::8             4365                       # Per bank write bursts
system.mem_ctrls3.perBankRdBursts::9             4633                       # Per bank write bursts
system.mem_ctrls3.perBankRdBursts::10            4406                       # Per bank write bursts
system.mem_ctrls3.perBankRdBursts::11            4620                       # Per bank write bursts
system.mem_ctrls3.perBankRdBursts::12            4224                       # Per bank write bursts
system.mem_ctrls3.perBankRdBursts::13            4052                       # Per bank write bursts
system.mem_ctrls3.perBankRdBursts::14            4276                       # Per bank write bursts
system.mem_ctrls3.perBankRdBursts::15            4401                       # Per bank write bursts
system.mem_ctrls3.perBankWrBursts::0             2708                       # Per bank write bursts
system.mem_ctrls3.perBankWrBursts::1             2700                       # Per bank write bursts
system.mem_ctrls3.perBankWrBursts::2             2689                       # Per bank write bursts
system.mem_ctrls3.perBankWrBursts::3             2773                       # Per bank write bursts
system.mem_ctrls3.perBankWrBursts::4             2690                       # Per bank write bursts
system.mem_ctrls3.perBankWrBursts::5             2815                       # Per bank write bursts
system.mem_ctrls3.perBankWrBursts::6             2639                       # Per bank write bursts
system.mem_ctrls3.perBankWrBursts::7             2726                       # Per bank write bursts
system.mem_ctrls3.perBankWrBursts::8             2625                       # Per bank write bursts
system.mem_ctrls3.perBankWrBursts::9             2804                       # Per bank write bursts
system.mem_ctrls3.perBankWrBursts::10            2651                       # Per bank write bursts
system.mem_ctrls3.perBankWrBursts::11            2605                       # Per bank write bursts
system.mem_ctrls3.perBankWrBursts::12            2530                       # Per bank write bursts
system.mem_ctrls3.perBankWrBursts::13            2555                       # Per bank write bursts
system.mem_ctrls3.perBankWrBursts::14            2707                       # Per bank write bursts
system.mem_ctrls3.perBankWrBursts::15            2648                       # Per bank write bursts
system.mem_ctrls3.numRdRetry                      367                       # Number of times read queue was full causing retry
system.mem_ctrls3.numWrRetry                     2383                       # Number of times write queue was full causing retry
system.mem_ctrls3.totGap                  38832032500                       # Total gap between requests
system.mem_ctrls3.readPktSize::0                    0                       # Read request sizes (log2)
system.mem_ctrls3.readPktSize::1                    0                       # Read request sizes (log2)
system.mem_ctrls3.readPktSize::2                    0                       # Read request sizes (log2)
system.mem_ctrls3.readPktSize::3                    0                       # Read request sizes (log2)
system.mem_ctrls3.readPktSize::4                    0                       # Read request sizes (log2)
system.mem_ctrls3.readPktSize::5                    0                       # Read request sizes (log2)
system.mem_ctrls3.readPktSize::6                71072                       # Read request sizes (log2)
system.mem_ctrls3.writePktSize::0                   0                       # Write request sizes (log2)
system.mem_ctrls3.writePktSize::1                   0                       # Write request sizes (log2)
system.mem_ctrls3.writePktSize::2                   0                       # Write request sizes (log2)
system.mem_ctrls3.writePktSize::3                   0                       # Write request sizes (log2)
system.mem_ctrls3.writePktSize::4                   0                       # Write request sizes (log2)
system.mem_ctrls3.writePktSize::5                   0                       # Write request sizes (log2)
system.mem_ctrls3.writePktSize::6               42869                       # Write request sizes (log2)
system.mem_ctrls3.rdQLenPdf::0                  44622                       # What read queue length does an incoming req see
system.mem_ctrls3.rdQLenPdf::1                   3452                       # What read queue length does an incoming req see
system.mem_ctrls3.rdQLenPdf::2                   2987                       # What read queue length does an incoming req see
system.mem_ctrls3.rdQLenPdf::3                   2648                       # What read queue length does an incoming req see
system.mem_ctrls3.rdQLenPdf::4                   2347                       # What read queue length does an incoming req see
system.mem_ctrls3.rdQLenPdf::5                   1990                       # What read queue length does an incoming req see
system.mem_ctrls3.rdQLenPdf::6                   1753                       # What read queue length does an incoming req see
system.mem_ctrls3.rdQLenPdf::7                   1465                       # What read queue length does an incoming req see
system.mem_ctrls3.rdQLenPdf::8                   1310                       # What read queue length does an incoming req see
system.mem_ctrls3.rdQLenPdf::9                   1098                       # What read queue length does an incoming req see
system.mem_ctrls3.rdQLenPdf::10                   924                       # What read queue length does an incoming req see
system.mem_ctrls3.rdQLenPdf::11                   802                       # What read queue length does an incoming req see
system.mem_ctrls3.rdQLenPdf::12                   662                       # What read queue length does an incoming req see
system.mem_ctrls3.rdQLenPdf::13                   566                       # What read queue length does an incoming req see
system.mem_ctrls3.rdQLenPdf::14                   477                       # What read queue length does an incoming req see
system.mem_ctrls3.rdQLenPdf::15                   431                       # What read queue length does an incoming req see
system.mem_ctrls3.rdQLenPdf::16                   383                       # What read queue length does an incoming req see
system.mem_ctrls3.rdQLenPdf::17                   329                       # What read queue length does an incoming req see
system.mem_ctrls3.rdQLenPdf::18                   310                       # What read queue length does an incoming req see
system.mem_ctrls3.rdQLenPdf::19                   270                       # What read queue length does an incoming req see
system.mem_ctrls3.rdQLenPdf::20                   244                       # What read queue length does an incoming req see
system.mem_ctrls3.rdQLenPdf::21                   246                       # What read queue length does an incoming req see
system.mem_ctrls3.rdQLenPdf::22                   198                       # What read queue length does an incoming req see
system.mem_ctrls3.rdQLenPdf::23                   163                       # What read queue length does an incoming req see
system.mem_ctrls3.rdQLenPdf::24                   164                       # What read queue length does an incoming req see
[...]
system.ruby.L2Cache_Controller.IM.L1_GETX::total            1                      
system.ruby.L2Cache_Controller.IM.Mem_Data |        4705      3.12%      3.12% |        4697      3.12%      6.24% |        4706      3.12%      9.37% |        4713      3.13%     12.50% |        4704      3.12%     15.62% |        4711      3.13%     18.75% |        4710      3.13%     21.88% |        4694      3.12%     24.99% |        4710      3.13%     28.12% |        4711      3.13%     31.25% |        4696      3.12%     34.37% |        4715      3.13%     37.50% |        4700      3.12%     40.62% |        4703      3.12%     43.74% |        4702      3.12%     46.86% |        4698      3.12%     49.98% |        4716      3.13%     53.12% |        4710      3.13%     56.24% |        4712      3.13%     59.37% |        4706      3.12%     62.50% |        4709      3.13%     65.62% |        4722      3.14%     68.76% |        4701      3.12%     71.88% |        4707      3.13%     75.01% |        4720      3.13%     78.14% |        4710      3.13%     81.27% |        4716      3.13%     84.40% |        4702      3.12%     87.52% |        4703      3.12%     90.64% |        4699      3.12%     93.76% |        4703      3.12%     96.89% |        4688      3.11%    100.00%
system.ruby.L2Cache_Controller.IM.Mem_Data::total       150599                      
system.ruby.L2Cache_Controller.SS_MB.Exclusive_Unblock |           3      6.82%      6.82% |           6     13.64%     20.45% |           3      6.82%     27.27% |           4      9.09%     36.36% |           0      0.00%     36.36% |           0      0.00%     36.36% |           0      0.00%     36.36% |           0      0.00%     36.36% |           0      0.00%     36.36% |           0      0.00%     36.36% |           0      0.00%     36.36% |           0      0.00%     36.36% |           3      6.82%     43.18% |           0      0.00%     43.18% |           4      9.09%     52.27% |           0      0.00%     52.27% |           1      2.27%     54.55% |           0      0.00%     54.55% |          11     25.00%     79.55% |           2      4.55%     84.09% |           0      0.00%     84.09% |           1      2.27%     86.36% |           0      0.00%     86.36% |           1      2.27%     88.64% |           1      2.27%     90.91% |           0      0.00%     90.91% |           1      2.27%     93.18% |           2      4.55%     97.73% |           1      2.27%    100.00% |           0      0.00%    100.00% |           0      0.00%    100.00% |           0      0.00%    100.00%
system.ruby.L2Cache_Controller.SS_MB.Exclusive_Unblock::total           44                      
system.ruby.L2Cache_Controller.MT_MB.L1_GETS |           4    100.00%    100.00% |           0      0.00%    100.00% |           0      0.00%    100.00% |           0      0.00%    100.00% |           0      0.00%    100.00% |           0      0.00%    100.00% |           0      0.00%    100.00% |           0      0.00%    100.00% |           0      0.00%    100.00% |           0      0.00%    100.00% |           0      0.00%    100.00% |           0      0.00%    100.00% |           0      0.00%    100.00% |           0      0.00%    100.00% |           0      0.00%    100.00% |           0      0.00%    100.00% |           0      0.00%    100.00% |           0      0.00%    100.00% |           0      0.00%    100.00% |           0      0.00%    100.00% |           0      0.00%    100.00% |           0      0.00%    100.00% |           0      0.00%    100.00% |           0      0.00%    100.00% |           0      0.00%    100.00% |           0      0.00%    100.00% |           0      0.00%    100.00% |           0      0.00%    100.00% |           0      0.00%    100.00% |           0      0.00%    100.00% |           0      0.00%    100.00% |           0      0.00%    100.00%
system.ruby.L2Cache_Controller.MT_MB.L1_GETS::total            4                      
system.ruby.L2Cache_Controller.MT_MB.L1_PUTX |           0      0.00%      0.00% |           0      0.00%      0.00% |           0      0.00%      0.00% |           0      0.00%      0.00% |           0      0.00%      0.00% |           0      0.00%      0.00% |           0      0.00%      0.00% |           0      0.00%      0.00% |           0      0.00%      0.00% |           0      0.00%      0.00% |           0      0.00%      0.00% |           0      0.00%      0.00% |           0      0.00%      0.00% |           0      0.00%      0.00% |           0      0.00%      0.00% |           0      0.00%      0.00% |           1    100.00%    100.00% |           0      0.00%    100.00% |           0      0.00%    100.00% |           0      0.00%    100.00% |           0      0.00%    100.00% |           0      0.00%    100.00% |           0      0.00%    100.00% |           0      0.00%    100.00% |           0      0.00%    100.00% |           0      0.00%    100.00% |           0      0.00%    100.00% |           0      0.00%    100.00% |           0      0.00%    100.00% |           0      0.00%    100.00% |           0      0.00%    100.00% |           0      0.00%    100.00%
system.ruby.L2Cache_Controller.MT_MB.L1_PUTX::total            1                      
system.ruby.L2Cache_Controller.MT_MB.Exclusive_Unblock |       60430     12.23%     12.23% |       15538      3.15%     15.38% |       12747      2.58%     17.96% |       14800      3.00%     20.96% |       13333      2.70%     23.66% |       12717      2.57%     26.23% |       12240      2.48%     28.71% |       12902      2.61%     31.32% |       13097      2.65%     33.97% |       12757      2.58%     36.56% |       15511      3.14%     39.70% |       15760      3.19%     42.89% |       14128      2.86%     45.75% |       13215      2.68%     48.42% |       11998      2.43%     50.85% |       12462      2.52%     53.38% |       13982      2.83%     56.21% |       12805      2.59%     58.80% |       13227      2.68%     61.48% |       14224      2.88%     64.36% |       14901      3.02%     67.37% |       15884      3.22%     70.59% |       13721      2.78%     73.37% |       13754      2.78%     76.15% |       13836      2.80%     78.95% |       13398      2.71%     81.67% |       13250      2.68%     84.35% |       12958      2.62%     86.97% |       15561      3.15%     90.12% |       13986      2.83%     92.95% |       16358      3.31%     96.27% |       18447      3.73%    100.00%
system.ruby.L2Cache_Controller.MT_MB.Exclusive_Unblock::total       493927                      
system.ruby.L2Cache_Controller.MT_IIB.L1_PUTX |           1     33.33%     33.33% |           0      0.00%     33.33% |           0      0.00%     33.33% |           0      0.00%     33.33% |           0      0.00%     33.33% |           0      0.00%     33.33% |           0      0.00%     33.33% |           0      0.00%     33.33% |           0      0.00%     33.33% |           0      0.00%     33.33% |           0      0.00%     33.33% |           0      0.00%     33.33% |           0      0.00%     33.33% |           0      0.00%     33.33% |           0      0.00%     33.33% |           0      0.00%     33.33% |           2     66.67%    100.00% |           0      0.00%    100.00% |           0      0.00%    100.00% |           0      0.00%    100.00% |           0      0.00%    100.00% |           0      0.00%    100.00% |           0      0.00%    100.00% |           0      0.00%    100.00% |           0      0.00%    100.00% |           0      0.00%    100.00% |           0      0.00%    100.00% |           0      0.00%    100.00% |           0      0.00%    100.00% |           0      0.00%    100.00% |           0      0.00%    100.00% |           0      0.00%    100.00%
system.ruby.L2Cache_Controller.MT_IIB.L1_PUTX::total            3                      
system.ruby.L2Cache_Controller.MT_IIB.WB_Data |           0      0.00%      0.00% |           1     20.00%     20.00% |           1     20.00%     40.00% |           1     20.00%     60.00% |           0      0.00%     60.00% |           0      0.00%     60.00% |           1     20.00%     80.00% |           0      0.00%     80.00% |           0      0.00%     80.00% |           1     20.00%    100.00% |           0      0.00%    100.00% |           0      0.00%    100.00% |           0      0.00%    100.00% |           0      0.00%    100.00% |           0      0.00%    100.00% |           0      0.00%    100.00% |           0      0.00%    100.00% |           0      0.00%    100.00% |           0      0.00%    100.00% |           0      0.00%    100.00% |           0      0.00%    100.00% |           0      0.00%    100.00% |           0      0.00%    100.00% |           0      0.00%    100.00% |           0      0.00%    100.00% |           0      0.00%    100.00% |           0      0.00%    100.00% |           0      0.00%    100.00% |           0      0.00%    100.00% |           0      0.00%    100.00% |           0      0.00%    100.00% |           0      0.00%    100.00%
system.ruby.L2Cache_Controller.MT_IIB.WB_Data::total            5                      
system.ruby.L2Cache_Controller.MT_IIB.WB_Data_clean |        2969     51.12%     51.12% |           0      0.00%     51.12% |           0      0.00%     51.12% |           0      0.00%     51.12% |           0      0.00%     51.12% |           0      0.00%     51.12% |           0      0.00%     51.12% |           0      0.00%     51.12% |           0      0.00%     51.12% |           0      0.00%     51.12% |           0      0.00%     51.12% |           0      0.00%     51.12% |           0      0.00%     51.12% |           0      0.00%     51.12% |           0      0.00%     51.12% |           0      0.00%     51.12% |        2839     48.88%    100.00% |           0      0.00%    100.00% |           0      0.00%    100.00% |           0      0.00%    100.00% |           0      0.00%    100.00% |           0      0.00%    100.00% |           0      0.00%    100.00% |           0      0.00%    100.00% |           0      0.00%    100.00% |           0      0.00%    100.00% |           0      0.00%    100.00% |           0      0.00%    100.00% |           0      0.00%    100.00% |           0      0.00%    100.00% |           0      0.00%    100.00% |           0      0.00%    100.00%
system.ruby.L2Cache_Controller.MT_IIB.WB_Data_clean::total         5808                      
system.ruby.L2Cache_Controller.MT_IIB.Unblock |          66     23.49%     23.49% |           0      0.00%     23.49% |           0      0.00%     23.49% |           0      0.00%     23.49% |           0      0.00%     23.49% |           0      0.00%     23.49% |           0      0.00%     23.49% |           0      0.00%     23.49% |           0      0.00%     23.49% |           0      0.00%     23.49% |           0      0.00%     23.49% |           0      0.00%     23.49% |           0      0.00%     23.49% |           0      0.00%     23.49% |           0      0.00%     23.49% |           0      0.00%     23.49% |         215     76.51%    100.00% |           0      0.00%    100.00% |           0      0.00%    100.00% |           0      0.00%    100.00% |           0      0.00%    100.00% |           0      0.00%    100.00% |           0      0.00%    100.00% |           0      0.00%    100.00% |           0      0.00%    100.00% |           0      0.00%    100.00% |           0      0.00%    100.00% |           0      0.00%    100.00% |           0      0.00%    100.00% |           0      0.00%    100.00% |           0      0.00%    100.00% |           0      0.00%    100.00%
system.ruby.L2Cache_Controller.MT_IIB.Unblock::total          281                      
system.ruby.L2Cache_Controller.MT_IB.WB_Data_clean |          66     23.49%     23.49% |           0      0.00%     23.49% |           0      0.00%     23.49% |           0      0.00%     23.49% |           0      0.00%     23.49% |           0      0.00%     23.49% |           0      0.00%     23.49% |           0      0.00%     23.49% |           0      0.00%     23.49% |           0      0.00%     23.49% |           0      0.00%     23.49% |           0      0.00%     23.49% |           0      0.00%     23.49% |           0      0.00%     23.49% |           0      0.00%     23.49% |           0      0.00%     23.49% |         215     76.51%    100.00% |           0      0.00%    100.00% |           0      0.00%    100.00% |           0      0.00%    100.00% |           0      0.00%    100.00% |           0      0.00%    100.00% |           0      0.00%    100.00% |           0      0.00%    100.00% |           0      0.00%    100.00% |           0      0.00%    100.00% |           0      0.00%    100.00% |           0      0.00%    100.00% |           0      0.00%    100.00% |           0      0.00%    100.00% |           0      0.00%    100.00% |           0      0.00%    100.00%
system.ruby.L2Cache_Controller.MT_IB.WB_Data_clean::total          281                      
system.ruby.L2Cache_Controller.MT_SB.Unblock |        2969     51.08%     51.08% |           1      0.02%     51.09% |           1      0.02%     51.11% |           1      0.02%     51.13% |           0      0.00%     51.13% |           0      0.00%     51.13% |           1      0.02%     51.14% |           0      0.00%     51.14% |           0      0.00%     51.14% |           1      0.02%     51.16% |           0      0.00%     51.16% |           0      0.00%     51.16% |           0      0.00%     51.16% |           0      0.00%     51.16% |           0      0.00%     51.16% |           0      0.00%     51.16% |        2839     48.84%    100.00% |           0      0.00%    100.00% |           0      0.00%    100.00% |           0      0.00%    100.00% |           0      0.00%    100.00% |           0      0.00%    100.00% |           0      0.00%    100.00% |           0      0.00%    100.00% |           0      0.00%    100.00% |           0      0.00%    100.00% |           0      0.00%    100.00% |           0      0.00%    100.00% |           0      0.00%    100.00% |           0      0.00%    100.00% |           0      0.00%    100.00% |           0      0.00%    100.00%
system.ruby.L2Cache_Controller.MT_SB.Unblock::total         5813                      
system.ruby.SimicsNetworkPortInterface_Controller.MessageSend |       16555     10.32%     10.32% |       80191     50.00%     60.32% |        7620      4.75%     65.07% |        7953      4.96%     70.03% |        7839      4.89%     74.92% |        7757      4.84%     79.76% |        7839      4.89%     84.64% |        7716      4.81%     89.46% |        8401      5.24%     94.69% |        8511      5.31%    100.00% |           0      0.00%    100.00% |           0      0.00%    100.00% |           0      0.00%    100.00% |           0      0.00%    100.00% |           0      0.00%    100.00% |           0      0.00%    100.00% |           0      0.00%    100.00% |           0      0.00%    100.00% |           0      0.00%    100.00% |           0      0.00%    100.00% |           0      0.00%    100.00% |           0      0.00%    100.00% |           0      0.00%    100.00% |           0      0.00%    100.00% |           0      0.00%    100.00% |           0      0.00%    100.00% |           0      0.00%    100.00% |           0      0.00%    100.00% |           0      0.00%    100.00% |           0      0.00%    100.00% |           0      0.00%    100.00% |           0      0.00%    100.00%
system.ruby.SimicsNetworkPortInterface_Controller.MessageSend::total       160382                      
system.ruby.SimicsNetworkPortInterface_Controller.MessageRecv |       16555     10.32%     10.32% |       80191     50.00%     60.32% |        7620      4.75%     65.07% |        7953      4.96%     70.03% |        7839      4.89%     74.92% |        7757      4.84%     79.76% |        7839      4.89%     84.64% |        7716      4.81%     89.46% |        8401      5.24%     94.69% |        8511      5.31%    100.00% |           0      0.00%    100.00% |           0      0.00%    100.00% |           0      0.00%    100.00% |           0      0.00%    100.00% |           0      0.00%    100.00% |           0      0.00%    100.00% |           0      0.00%    100.00% |           0      0.00%    100.00% |           0      0.00%    100.00% |           0      0.00%    100.00% |           0      0.00%    100.00% |           0      0.00%    100.00% |           0      0.00%    100.00% |           0      0.00%    100.00% |           0      0.00%    100.00% |           0      0.00%    100.00% |           0      0.00%    100.00% |           0      0.00%    100.00% |           0      0.00%    100.00% |           0      0.00%    100.00% |           0      0.00%    100.00% |           0      0.00%    100.00%
system.ruby.SimicsNetworkPortInterface_Controller.MessageRecv::total       160382                      
system.ruby.SimicsNetworkPortInterface_Controller.A.MessageSend |       16555     10.32%     10.32% |       80191     50.00%     60.32% |        7620      4.75%     65.07% |        7953      4.96%     70.03% |        7839      4.89%     74.92% |        7757      4.84%     79.76% |        7839      4.89%     84.64% |        7716      4.81%     89.46% |        8401      5.24%     94.69% |        8511      5.31%    100.00% |           0      0.00%    100.00% |           0      0.00%    100.00% |           0      0.00%    100.00% |           0      0.00%    100.00% |           0      0.00%    100.00% |           0      0.00%    100.00% |           0      0.00%    100.00% |           0      0.00%    100.00% |           0      0.00%    100.00% |           0      0.00%    100.00% |           0      0.00%    100.00% |           0      0.00%    100.00% |           0      0.00%    100.00% |           0      0.00%    100.00% |           0      0.00%    100.00% |           0      0.00%    100.00% |           0      0.00%    100.00% |           0      0.00%    100.00% |           0      0.00%    100.00% |           0      0.00%    100.00% |           0      0.00%    100.00% |           0      0.00%    100.00%
system.ruby.SimicsNetworkPortInterface_Controller.A.MessageSend::total       160382                      
system.ruby.SimicsNetworkPortInterface_Controller.A.MessageRecv |       16555     10.32%     10.32% |       80191     50.00%     60.32% |        7620      4.75%     65.07% |        7953      4.96%     70.03% |        7839      4.89%     74.92% |        7757      4.84%     79.76% |        7839      4.89%     84.64% |        7716      4.81%     89.46% |        8401      5.24%     94.69% |        8511      5.31%    100.00% |           0      0.00%    100.00% |           0      0.00%    100.00% |           0      0.00%    100.00% |           0      0.00%    100.00% |           0      0.00%    100.00% |           0      0.00%    100.00% |           0      0.00%    100.00% |           0      0.00%    100.00% |           0      0.00%    100.00% |           0      0.00%    100.00% |           0      0.00%    100.00% |           0      0.00%    100.00% |           0      0.00%    100.00% |           0      0.00%    100.00% |           0      0.00%    100.00% |           0      0.00%    100.00% |           0      0.00%    100.00% |           0      0.00%    100.00% |           0      0.00%    100.00% |           0      0.00%    100.00% |           0      0.00%    100.00% |           0      0.00%    100.00%
system.ruby.SimicsNetworkPortInterface_Controller.A.MessageRecv::total       160382                      
system.switch_cpus.kern.inst.arm                    0                       # number of arm instructions executed
system.switch_cpus.kern.inst.quiesce                0                       # number of quiesce instructions executed

---------- End Simulation Statistics   ----------
