
---------- Begin Simulation Statistics ----------
sim_seconds                                  0.130688                       # Number of seconds simulated
sim_ticks                                130687947500                       # Number of ticks simulated
final_tick                               5306856026000                       # Number of ticks from beginning of simulation (restored from checkpoints and never reset)
sim_freq                                 1000000000000                       # Frequency of simulated ticks
host_inst_rate                                  34087                       # Simulator instruction rate (inst/s)
host_op_rate                                    58850                       # Simulator op (including micro ops) rate (op/s)
host_tick_rate                              104302954                       # Simulator tick rate (ticks/s)
host_mem_usage                                3716580                       # Number of bytes of host memory used
host_seconds                                  1252.97                       # Real time elapsed on the host
sim_insts                                    42710289                       # Number of instructions simulated
sim_ops                                      73736663                       # Number of ops (including micro ops) simulated
system.voltage_domain.voltage                       1                       # Voltage in Volts
system.clk_domain.clock                           500                       # Clock period in ticks
system.mem_ctrls0.bytes_read::ruby.dir_cntrl0     21454400                       # Number of bytes read from this memory
system.mem_ctrls0.bytes_read::total          21454400                       # Number of bytes read from this memory
system.mem_ctrls0.bytes_written::ruby.dir_cntrl0     13551296                       # Number of bytes written to this memory
system.mem_ctrls0.bytes_written::total       13551296                       # Number of bytes written to this memory
system.mem_ctrls0.num_reads::ruby.dir_cntrl0       335225                       # Number of read requests responded to by this memory
system.mem_ctrls0.num_reads::total             335225                       # Number of read requests responded to by this memory
system.mem_ctrls0.num_writes::ruby.dir_cntrl0       211739                       # Number of write requests responded to by this memory
system.mem_ctrls0.num_writes::total            211739                       # Number of write requests responded to by this memory
system.mem_ctrls0.bw_read::ruby.dir_cntrl0    164165100                       # Total read bandwidth from this memory (bytes/s)
system.mem_ctrls0.bw_read::total            164165100                       # Total read bandwidth from this memory (bytes/s)
system.mem_ctrls0.bw_write::ruby.dir_cntrl0    103692010                       # Write bandwidth from this memory (bytes/s)
system.mem_ctrls0.bw_write::total           103692010                       # Write bandwidth from this memory (bytes/s)
system.mem_ctrls0.bw_total::ruby.dir_cntrl0    267857111                       # Total bandwidth to/from this memory (bytes/s)
system.mem_ctrls0.bw_total::total           267857111                       # Total bandwidth to/from this memory (bytes/s)
system.mem_ctrls0.readReqs                     335225                       # Number of read requests accepted
system.mem_ctrls0.writeReqs                    211739                       # Number of write requests accepted
system.mem_ctrls0.readBursts                   335225                       # Number of DRAM read bursts, including those serviced by the write queue
system.mem_ctrls0.writeBursts                  211739                       # Number of DRAM write bursts, including those merged in the write queue
system.mem_ctrls0.bytesReadDRAM              21453120                       # Total number of bytes read from DRAM
system.mem_ctrls0.bytesReadWrQ                   1280                       # Total number of bytes read from write queue
system.mem_ctrls0.bytesWritten               13551168                       # Total number of bytes written to DRAM
system.mem_ctrls0.bytesReadSys               21454400                       # Total read bytes from the system interface side
system.mem_ctrls0.bytesWrittenSys            13551296                       # Total written bytes from the system interface side
system.mem_ctrls0.servicedByWrQ                    20                       # Number of DRAM read bursts serviced by the write queue
system.mem_ctrls0.mergedWrBursts                    0                       # Number of DRAM write bursts merged with an existing one
system.mem_ctrls0.neitherReadNorWriteReqs            0                       # Number of requests that are neither read nor write
system.mem_ctrls0.perBankRdBursts::0            20689                       # Per bank write bursts
system.mem_ctrls0.perBankRdBursts::1            21313                       # Per bank write bursts
system.mem_ctrls0.perBankRdBursts::2            20884                       # Per bank write bursts
system.mem_ctrls0.perBankRdBursts::3            21361                       # Per bank write bursts
system.mem_ctrls0.perBankRdBursts::4            20959                       # Per bank write bursts
system.mem_ctrls0.perBankRdBursts::5            21182                       # Per bank write bursts
system.mem_ctrls0.perBankRdBursts::6            21092                       # Per bank write bursts
system.mem_ctrls0.perBankRdBursts::7            21065                       # Per bank write bursts
system.mem_ctrls0.perBankRdBursts::8            20833                       # Per bank write bursts
system.mem_ctrls0.perBankRdBursts::9            21038                       # Per bank write bursts
system.mem_ctrls0.perBankRdBursts::10           20808                       # Per bank write bursts
system.mem_ctrls0.perBankRdBursts::11           21195                       # Per bank write bursts
system.mem_ctrls0.perBankRdBursts::12           20657                       # Per bank write bursts
system.mem_ctrls0.perBankRdBursts::13           20567                       # Per bank write bursts
system.mem_ctrls0.perBankRdBursts::14           20786                       # Per bank write bursts
system.mem_ctrls0.perBankRdBursts::15           20776                       # Per bank write bursts
system.mem_ctrls0.perBankWrBursts::0            13281                       # Per bank write bursts
system.mem_ctrls0.perBankWrBursts::1            13212                       # Per bank write bursts
system.mem_ctrls0.perBankWrBursts::2            13149                       # Per bank write bursts
system.mem_ctrls0.perBankWrBursts::3            13368                       # Per bank write bursts
system.mem_ctrls0.perBankWrBursts::4            13198                       # Per bank write bursts
system.mem_ctrls0.perBankWrBursts::5            13318                       # Per bank write bursts
system.mem_ctrls0.perBankWrBursts::6            13250                       # Per bank write bursts
system.mem_ctrls0.perBankWrBursts::7            13423                       # Per bank write bursts
system.mem_ctrls0.perBankWrBursts::8            13175                       # Per bank write bursts
system.mem_ctrls0.perBankWrBursts::9            13388                       # Per bank write bursts
system.mem_ctrls0.perBankWrBursts::10           13164                       # Per bank write bursts
system.mem_ctrls0.perBankWrBursts::11           13120                       # Per bank write bursts
system.mem_ctrls0.perBankWrBursts::12           13064                       # Per bank write bursts
system.mem_ctrls0.perBankWrBursts::13           13085                       # Per bank write bursts
system.mem_ctrls0.perBankWrBursts::14           13364                       # Per bank write bursts
system.mem_ctrls0.perBankWrBursts::15           13178                       # Per bank write bursts
system.mem_ctrls0.numRdRetry                   100940                       # Number of times read queue was full causing retry
system.mem_ctrls0.numWrRetry                     2994                       # Number of times write queue was full causing retry
system.mem_ctrls0.totGap                 130687401500                       # Total gap between requests
system.mem_ctrls0.readPktSize::0                    0                       # Read request sizes (log2)
system.mem_ctrls0.readPktSize::1                    0                       # Read request sizes (log2)
system.mem_ctrls0.readPktSize::2                    0                       # Read request sizes (log2)
system.mem_ctrls0.readPktSize::3                    0                       # Read request sizes (log2)
system.mem_ctrls0.readPktSize::4                    0                       # Read request sizes (log2)
system.mem_ctrls0.readPktSize::5                    0                       # Read request sizes (log2)
system.mem_ctrls0.readPktSize::6               335225                       # Read request sizes (log2)
system.mem_ctrls0.writePktSize::0                   0                       # Write request sizes (log2)
system.mem_ctrls0.writePktSize::1                   0                       # Write request sizes (log2)
system.mem_ctrls0.writePktSize::2                   0                       # Write request sizes (log2)
system.mem_ctrls0.writePktSize::3                   0                       # Write request sizes (log2)
system.mem_ctrls0.writePktSize::4                   0                       # Write request sizes (log2)
system.mem_ctrls0.writePktSize::5                   0                       # Write request sizes (log2)
system.mem_ctrls0.writePktSize::6              211739                       # Write request sizes (log2)
system.mem_ctrls0.rdQLenPdf::0                 175721                       # What read queue length does an incoming req see
system.mem_ctrls0.rdQLenPdf::1                   5152                       # What read queue length does an incoming req see
system.mem_ctrls0.rdQLenPdf::2                   2399                       # What read queue length does an incoming req see
system.mem_ctrls0.rdQLenPdf::3                   1096                       # What read queue length does an incoming req see
system.mem_ctrls0.rdQLenPdf::4                   1248                       # What read queue length does an incoming req see
system.mem_ctrls0.rdQLenPdf::5                   1308                       # What read queue length does an incoming req see
system.mem_ctrls0.rdQLenPdf::6                   1388                       # What read queue length does an incoming req see
system.mem_ctrls0.rdQLenPdf::7                   1435                       # What read queue length does an incoming req see
system.mem_ctrls0.rdQLenPdf::8                   1455                       # What read queue length does an incoming req see
system.mem_ctrls0.rdQLenPdf::9                   1575                       # What read queue length does an incoming req see
system.mem_ctrls0.rdQLenPdf::10                  1605                       # What read queue length does an incoming req see
system.mem_ctrls0.rdQLenPdf::11                  1685                       # What read queue length does an incoming req see
system.mem_ctrls0.rdQLenPdf::12                  1782                       # What read queue length does an incoming req see
system.mem_ctrls0.rdQLenPdf::13                  1719                       # What read queue length does an incoming req see
system.mem_ctrls0.rdQLenPdf::14                  1762                       # What read queue length does an incoming req see
system.mem_ctrls0.rdQLenPdf::15                  1733                       # What read queue length does an incoming req see
system.mem_ctrls0.rdQLenPdf::16                  1804                       # What read queue length does an incoming req see
system.mem_ctrls0.rdQLenPdf::17                  1730                       # What read queue length does an incoming req see
system.mem_ctrls0.rdQLenPdf::18                  1732                       # What read queue length does an incoming req see
system.mem_ctrls0.rdQLenPdf::19                  1804                       # What read queue length does an incoming req see
system.mem_ctrls0.rdQLenPdf::20                  1868                       # What read queue length does an incoming req see
system.mem_ctrls0.rdQLenPdf::21                  1834                       # What read queue length does an incoming req see
system.mem_ctrls0.rdQLenPdf::22                  1792                       # What read queue length does an incoming req see
system.mem_ctrls0.rdQLenPdf::23                  1761                       # What read queue length does an incoming req see
system.mem_ctrls0.rdQLenPdf::24                  1827                       # What read queue length does an incoming req see
system.mem_ctrls0.rdQLenPdf::25                  1970                       # What read queue length does an incoming req see
system.mem_ctrls0.rdQLenPdf::26                  1977                       # What read queue length does an incoming req see
system.mem_ctrls0.rdQLenPdf::27                  2013                       # What read queue length does an incoming req see
system.mem_ctrls0.rdQLenPdf::28                  2058                       # What read queue length does an incoming req see
system.mem_ctrls0.rdQLenPdf::29                  2105                       # What read queue length does an incoming req see
system.mem_ctrls0.rdQLenPdf::30                  2193                       # What read queue length does an incoming req see
system.mem_ctrls0.rdQLenPdf::31                103674                       # What read queue length does an incoming req see
system.mem_ctrls0.wrQLenPdf::0                  37570                       # What write queue length does an incoming req see
system.mem_ctrls0.wrQLenPdf::1                  38568                       # What write queue length does an incoming req see
system.mem_ctrls0.wrQLenPdf::2                  39078                       # What write queue length does an incoming req see
system.mem_ctrls0.wrQLenPdf::3                  39313                       # What write queue length does an incoming req see
system.mem_ctrls0.wrQLenPdf::4                  39195                       # What write queue length does an incoming req see
system.mem_ctrls0.wrQLenPdf::5                   5467                       # What write queue length does an incoming req see
system.mem_ctrls0.wrQLenPdf::6                   5983                       # What write queue length does an incoming req see
system.mem_ctrls0.wrQLenPdf::7                   6565                       # What write queue length does an incoming req see
system.mem_ctrls0.bytesPerActivate::samples       152665                       # Bytes accessed per row activation
system.mem_ctrls0.bytesPerActivate::mean   229.282363                       # Bytes accessed per row activation
system.mem_ctrls0.bytesPerActivate::gmean   167.894456                       # Bytes accessed per row activation
system.mem_ctrls0.bytesPerActivate::stdev   190.906087                       # Bytes accessed per row activation
system.mem_ctrls0.bytesPerActivate::0-127        51924     34.01%     34.01% # Bytes accessed per row activation
system.mem_ctrls0.bytesPerActivate::128-255        30511     19.99%     54.00% # Bytes accessed per row activation
system.mem_ctrls0.bytesPerActivate::256-383        52950     34.68%     88.68% # Bytes accessed per row activation
system.mem_ctrls0.bytesPerActivate::384-511         5945      3.89%     92.58% # Bytes accessed per row activation
system.mem_ctrls0.bytesPerActivate::512-639         4043      2.65%     95.22% # Bytes accessed per row activation
system.mem_ctrls0.bytesPerActivate::640-767         2304      1.51%     96.73% # Bytes accessed per row activation
system.mem_ctrls0.bytesPerActivate::768-895         1350      0.88%     97.62% # Bytes accessed per row activation
system.mem_ctrls0.bytesPerActivate::896-1023         1083      0.71%     98.33% # Bytes accessed per row activation
system.mem_ctrls0.bytesPerActivate::1024-1151         2555      1.67%    100.00% # Bytes accessed per row activation
system.mem_ctrls0.bytesPerActivate::total       152665                       # Bytes accessed per row activation
system.mem_ctrls0.rdPerTurnAround::samples        37844                       # Reads before turning the bus around for writes
system.mem_ctrls0.rdPerTurnAround::mean      8.856437                       # Reads before turning the bus around for writes
system.mem_ctrls0.rdPerTurnAround::stdev    23.963008                       # Reads before turning the bus around for writes
system.mem_ctrls0.rdPerTurnAround::0-127        37823     99.94%     99.94% # Reads before turning the bus around for writes
system.mem_ctrls0.rdPerTurnAround::128-255           20      0.05%    100.00% # Reads before turning the bus around for writes
system.mem_ctrls0.rdPerTurnAround::3968-4095            1      0.00%    100.00% # Reads before turning the bus around for writes
system.mem_ctrls0.rdPerTurnAround::total        37844                       # Reads before turning the bus around for writes
system.mem_ctrls0.wrPerTurnAround::samples        37844                       # Writes before turning the bus around for reads
system.mem_ctrls0.wrPerTurnAround::mean      5.594995                       # Writes before turning the bus around for reads
system.mem_ctrls0.wrPerTurnAround::gmean     5.406544                       # Writes before turning the bus around for reads
system.mem_ctrls0.wrPerTurnAround::stdev     1.898555                       # Writes before turning the bus around for reads
system.mem_ctrls0.wrPerTurnAround::4-7          34442     91.01%     91.01% # Writes before turning the bus around for reads
system.mem_ctrls0.wrPerTurnAround::8-11          2255      5.96%     96.97% # Writes before turning the bus around for reads
system.mem_ctrls0.wrPerTurnAround::12-15          679      1.79%     98.76% # Writes before turning the bus around for reads
system.mem_ctrls0.wrPerTurnAround::16-19          468      1.24%    100.00% # Writes before turning the bus around for reads
system.mem_ctrls0.wrPerTurnAround::total        37844                       # Writes before turning the bus around for reads
system.mem_ctrls0.totQLat                 33749381139                       # Total ticks spent queuing
system.mem_ctrls0.totMemAccLat            40034474889                       # Total ticks spent from burst creation until serviced by the DRAM
system.mem_ctrls0.totBusLat                1676025000                       # Total ticks spent in databus transfers
system.mem_ctrls0.avgQLat                   100682.81                       # Average queueing delay per DRAM burst
system.mem_ctrls0.avgBusLat                   5000.00                       # Average bus latency per DRAM burst
system.mem_ctrls0.avgMemAccLat              119432.81                       # Average memory access latency per DRAM burst
system.mem_ctrls0.avgRdBW                      164.16                       # Average DRAM read bandwidth in MiByte/s
system.mem_ctrls0.avgWrBW                      103.69                       # Average achieved write bandwidth in MiByte/s
system.mem_ctrls0.avgRdBWSys                   164.17                       # Average system read bandwidth in MiByte/s
system.mem_ctrls0.avgWrBWSys                   103.69                       # Average system write bandwidth in MiByte/s
system.mem_ctrls0.peakBW                     12800.00                       # Theoretical peak bandwidth in MiByte/s
system.mem_ctrls0.busUtil                        2.09                       # Data bus utilization in percentage
system.mem_ctrls0.busUtilRead                    1.28                       # Data bus utilization in percentage for reads
system.mem_ctrls0.busUtilWrite                   0.81                       # Data bus utilization in percentage for writes
system.mem_ctrls0.avgRdQLen                      1.27                       # Average read queue length when enqueuing
system.mem_ctrls0.avgWrQLen                      2.96                       # Average write queue length when enqueuing
system.mem_ctrls0.readRowHits                  255190                       # Number of row buffer hits during reads
system.mem_ctrls0.writeRowHits                 139079                       # Number of row buffer hits during writes
system.mem_ctrls0.readRowHitRate                76.13                       # Row buffer hit rate for reads
system.mem_ctrls0.writeRowHitRate               65.68                       # Row buffer hit rate for writes
system.mem_ctrls0.avgGap                    238932.36                       # Average gap between requests
system.mem_ctrls0.pageHitRate                   72.09                       # Row buffer hit rate, read and write combined
system.mem_ctrls0.memoryStateTime::IDLE   28041635500                       # Time in different power states
system.mem_ctrls0.memoryStateTime::REF     4363840000                       # Time in different power states
system.mem_ctrls0.memoryStateTime::PRE_PDN            0                       # Time in different power states
system.mem_ctrls0.memoryStateTime::ACT    98279461500                       # Time in different power states
system.mem_ctrls0.memoryStateTime::ACT_PDN            0                       # Time in different power states
system.mem_ctrls0.actEnergy::0              582543360                       # Energy for activate commands per rank (pJ)
system.mem_ctrls0.actEnergy::1              571596480                       # Energy for activate commands per rank (pJ)
system.mem_ctrls0.preEnergy::0              317856000                       # Energy for precharge commands per rank (pJ)
system.mem_ctrls0.preEnergy::1              311883000                       # Energy for precharge commands per rank (pJ)
system.mem_ctrls0.readEnergy::0            1314588600                       # Energy for read commands per rank (pJ)
system.mem_ctrls0.readEnergy::1            1299877800                       # Energy for read commands per rank (pJ)
system.mem_ctrls0.writeEnergy::0            688169520                       # Energy for write commands per rank (pJ)
system.mem_ctrls0.writeEnergy::1            683886240                       # Energy for write commands per rank (pJ)
system.mem_ctrls0.refreshEnergy::0         8535671040                       # Energy for refresh commands per rank (pJ)
system.mem_ctrls0.refreshEnergy::1         8535671040                       # Energy for refresh commands per rank (pJ)
system.mem_ctrls0.actBackEnergy::0        49693954320                       # Energy for active background per rank (pJ)
system.mem_ctrls0.actBackEnergy::1        49260446235                       # Energy for active background per rank (pJ)
system.mem_ctrls0.preBackEnergy::0        34819620000                       # Energy for precharge background per rank (pJ)
system.mem_ctrls0.preBackEnergy::1        35199890250                       # Energy for precharge background per rank (pJ)
system.mem_ctrls0.totalEnergy::0          95952402840                       # Total energy per rank (pJ)
system.mem_ctrls0.totalEnergy::1          95863251045                       # Total energy per rank (pJ)
system.mem_ctrls0.averagePower::0          734.228395                       # Core power per rank (mW)
system.mem_ctrls0.averagePower::1          733.546205                       # Core power per rank (mW)
system.mem_ctrls1.bytes_read::ruby.dir_cntrl1     20799232                       # Number of bytes read from this memory
system.mem_ctrls1.bytes_read::total          20799232                       # Number of bytes read from this memory
system.mem_ctrls1.bytes_written::ruby.dir_cntrl1     12923840                       # Number of bytes written to this memory
system.mem_ctrls1.bytes_written::total       12923840                       # Number of bytes written to this memory
system.mem_ctrls1.num_reads::ruby.dir_cntrl1       324988                       # Number of read requests responded to by this memory
system.mem_ctrls1.num_reads::total             324988                       # Number of read requests responded to by this memory
system.mem_ctrls1.num_writes::ruby.dir_cntrl1       201935                       # Number of write requests responded to by this memory
system.mem_ctrls1.num_writes::total            201935                       # Number of write requests responded to by this memory
system.mem_ctrls1.bw_read::ruby.dir_cntrl1    159151876                       # Total read bandwidth from this memory (bytes/s)
system.mem_ctrls1.bw_read::total            159151876                       # Total read bandwidth from this memory (bytes/s)
system.mem_ctrls1.bw_write::ruby.dir_cntrl1     98890833                       # Write bandwidth from this memory (bytes/s)
system.mem_ctrls1.bw_write::total            98890833                       # Write bandwidth from this memory (bytes/s)
system.mem_ctrls1.bw_total::ruby.dir_cntrl1    258042709                       # Total bandwidth to/from this memory (bytes/s)
system.mem_ctrls1.bw_total::total           258042709                       # Total bandwidth to/from this memory (bytes/s)
system.mem_ctrls1.readReqs                     324988                       # Number of read requests accepted
system.mem_ctrls1.writeReqs                    201935                       # Number of write requests accepted
system.mem_ctrls1.readBursts                   324988                       # Number of DRAM read bursts, including those serviced by the write queue
system.mem_ctrls1.writeBursts                  201935                       # Number of DRAM write bursts, including those merged in the write queue
system.mem_ctrls1.bytesReadDRAM              20798016                       # Total number of bytes read from DRAM
system.mem_ctrls1.bytesReadWrQ                   1216                       # Total number of bytes read from write queue
system.mem_ctrls1.bytesWritten               12923840                       # Total number of bytes written to DRAM
system.mem_ctrls1.bytesReadSys               20799232                       # Total read bytes from the system interface side
system.mem_ctrls1.bytesWrittenSys            12923840                       # Total written bytes from the system interface side
system.mem_ctrls1.servicedByWrQ                    19                       # Number of DRAM read bursts serviced by the write queue
system.mem_ctrls1.mergedWrBursts                    0                       # Number of DRAM write bursts merged with an existing one
system.mem_ctrls1.neitherReadNorWriteReqs            0                       # Number of requests that are neither read nor write
system.mem_ctrls1.perBankRdBursts::0            20059                       # Per bank write bursts
system.mem_ctrls1.perBankRdBursts::1            20698                       # Per bank write bursts
system.mem_ctrls1.perBankRdBursts::2            20233                       # Per bank write bursts
system.mem_ctrls1.perBankRdBursts::3            20685                       # Per bank write bursts
system.mem_ctrls1.perBankRdBursts::4            20379                       # Per bank write bursts
system.mem_ctrls1.perBankRdBursts::5            20545                       # Per bank write bursts
system.mem_ctrls1.perBankRdBursts::6            20444                       # Per bank write bursts
system.mem_ctrls1.perBankRdBursts::7            20515                       # Per bank write bursts
system.mem_ctrls1.perBankRdBursts::8            20186                       # Per bank write bursts
system.mem_ctrls1.perBankRdBursts::9            20382                       # Per bank write bursts
system.mem_ctrls1.perBankRdBursts::10           20150                       # Per bank write bursts
system.mem_ctrls1.perBankRdBursts::11           20570                       # Per bank write bursts
system.mem_ctrls1.perBankRdBursts::12           20016                       # Per bank write bursts
system.mem_ctrls1.perBankRdBursts::13           19893                       # Per bank write bursts
system.mem_ctrls1.perBankRdBursts::14           20081                       # Per bank write bursts
system.mem_ctrls1.perBankRdBursts::15           20133                       # Per bank write bursts
system.mem_ctrls1.perBankWrBursts::0            12669                       # Per bank write bursts
system.mem_ctrls1.perBankWrBursts::1            12613                       # Per bank write bursts
system.mem_ctrls1.perBankWrBursts::2            12546                       # Per bank write bursts
system.mem_ctrls1.perBankWrBursts::3            12759                       # Per bank write bursts
system.mem_ctrls1.perBankWrBursts::4            12597                       # Per bank write bursts
system.mem_ctrls1.perBankWrBursts::5            12718                       # Per bank write bursts
system.mem_ctrls1.perBankWrBursts::6            12630                       # Per bank write bursts
system.mem_ctrls1.perBankWrBursts::7            12795                       # Per bank write bursts
system.mem_ctrls1.perBankWrBursts::8            12560                       # Per bank write bursts
system.mem_ctrls1.perBankWrBursts::9            12765                       # Per bank write bursts
system.mem_ctrls1.perBankWrBursts::10           12553                       # Per bank write bursts
system.mem_ctrls1.perBankWrBursts::11           12514                       # Per bank write bursts
system.mem_ctrls1.perBankWrBursts::12           12462                       # Per bank write bursts
system.mem_ctrls1.perBankWrBursts::13           12474                       # Per bank write bursts
system.mem_ctrls1.perBankWrBursts::14           12706                       # Per bank write bursts
system.mem_ctrls1.perBankWrBursts::15           12574                       # Per bank write bursts
system.mem_ctrls1.numRdRetry                    59472                       # Number of times read queue was full causing retry
system.mem_ctrls1.numWrRetry                     2466                       # Number of times write queue was full causing retry
system.mem_ctrls1.totGap                 130687127000                       # Total gap between requests
system.mem_ctrls1.readPktSize::0                    0                       # Read request sizes (log2)
system.mem_ctrls1.readPktSize::1                    0                       # Read request sizes (log2)
system.mem_ctrls1.readPktSize::2                    0                       # Read request sizes (log2)
system.mem_ctrls1.readPktSize::3                    0                       # Read request sizes (log2)
system.mem_ctrls1.readPktSize::4                    0                       # Read request sizes (log2)
system.mem_ctrls1.readPktSize::5                    0                       # Read request sizes (log2)
system.mem_ctrls1.readPktSize::6               324988                       # Read request sizes (log2)
system.mem_ctrls1.writePktSize::0                   0                       # Write request sizes (log2)
system.mem_ctrls1.writePktSize::1                   0                       # Write request sizes (log2)
system.mem_ctrls1.writePktSize::2                   0                       # Write request sizes (log2)
system.mem_ctrls1.writePktSize::3                   0                       # Write request sizes (log2)
system.mem_ctrls1.writePktSize::4                   0                       # Write request sizes (log2)
system.mem_ctrls1.writePktSize::5                   0                       # Write request sizes (log2)
system.mem_ctrls1.writePktSize::6              201935                       # Write request sizes (log2)
system.mem_ctrls1.rdQLenPdf::0                 171222                       # What read queue length does an incoming req see
system.mem_ctrls1.rdQLenPdf::1                   1974                       # What read queue length does an incoming req see
system.mem_ctrls1.rdQLenPdf::2                   1596                       # What read queue length does an incoming req see
system.mem_ctrls1.rdQLenPdf::3                   1727                       # What read queue length does an incoming req see
system.mem_ctrls1.rdQLenPdf::4                   1870                       # What read queue length does an incoming req see
system.mem_ctrls1.rdQLenPdf::5                   2073                       # What read queue length does an incoming req see
system.mem_ctrls1.rdQLenPdf::6                   2197                       # What read queue length does an incoming req see
system.mem_ctrls1.rdQLenPdf::7                   2288                       # What read queue length does an incoming req see
system.mem_ctrls1.rdQLenPdf::8                   2557                       # What read queue length does an incoming req see
system.mem_ctrls1.rdQLenPdf::9                   2663                       # What read queue length does an incoming req see
system.mem_ctrls1.rdQLenPdf::10                  2850                       # What read queue length does an incoming req see
system.mem_ctrls1.rdQLenPdf::11                  2927                       # What read queue length does an incoming req see
system.mem_ctrls1.rdQLenPdf::12                  3059                       # What read queue length does an incoming req see
system.mem_ctrls1.rdQLenPdf::13                  3230                       # What read queue length does an incoming req see
system.mem_ctrls1.rdQLenPdf::14                  3140                       # What read queue length does an incoming req see
system.mem_ctrls1.rdQLenPdf::15                  3297                       # What read queue length does an incoming req see
system.mem_ctrls1.rdQLenPdf::16                  3282                       # What read queue length does an incoming req see
system.mem_ctrls1.rdQLenPdf::17                  3304                       # What read queue length does an incoming req see
system.mem_ctrls1.rdQLenPdf::18                  3322                       # What read queue length does an incoming req see
system.mem_ctrls1.rdQLenPdf::19                  3422                       # What read queue length does an incoming req see
system.mem_ctrls1.rdQLenPdf::20                  3362                       # What read queue length does an incoming req see
system.mem_ctrls1.rdQLenPdf::21                  3508                       # What read queue length does an incoming req see
system.mem_ctrls1.rdQLenPdf::22                  3556                       # What read queue length does an incoming req see
system.mem_ctrls1.rdQLenPdf::23                  3437                       # What read queue length does an incoming req see
system.mem_ctrls1.rdQLenPdf::24                  3361                       # What read queue length does an incoming req see
system.mem_ctrls1.rdQLenPdf::25                  3484                       # What read queue length does an incoming req see
system.mem_ctrls1.rdQLenPdf::26                  3643                       # What read queue length does an incoming req see
system.mem_ctrls1.rdQLenPdf::27                  3605                       # What read queue length does an incoming req see
system.mem_ctrls1.rdQLenPdf::28                  3695                       # What read queue length does an incoming req see
system.mem_ctrls1.rdQLenPdf::29                  3810                       # What read queue length does an incoming req see
system.mem_ctrls1.rdQLenPdf::30                  3844                       # What read queue length does an incoming req see
system.mem_ctrls1.rdQLenPdf::31                 63664                       # What read queue length does an incoming req see
system.mem_ctrls1.wrQLenPdf::0                  35829                       # What write queue length does an incoming req see
system.mem_ctrls1.wrQLenPdf::1                  36871                       # What write queue length does an incoming req see
system.mem_ctrls1.wrQLenPdf::2                  37239                       # What write queue length does an incoming req see
system.mem_ctrls1.wrQLenPdf::3                  37512                       # What write queue length does an incoming req see
system.mem_ctrls1.wrQLenPdf::4                  37706                       # What write queue length does an incoming req see
system.mem_ctrls1.wrQLenPdf::5                   5453                       # What write queue length does an incoming req see
system.mem_ctrls1.wrQLenPdf::6                   5746                       # What write queue length does an incoming req see
system.mem_ctrls1.wrQLenPdf::7                   5579                       # What write queue length does an incoming req see
system.mem_ctrls1.bytesPerActivate::samples       126739                       # Bytes accessed per row activation
system.mem_ctrls1.bytesPerActivate::mean   266.067682                       # Bytes accessed per row activation
system.mem_ctrls1.bytesPerActivate::gmean   206.100035                       # Bytes accessed per row activation
system.mem_ctrls1.bytesPerActivate::stdev   197.227639                       # Bytes accessed per row activation
system.mem_ctrls1.bytesPerActivate::0-127        25606     20.20%     20.20% # Bytes accessed per row activation
system.mem_ctrls1.bytesPerActivate::128-255        30006     23.68%     43.88% # Bytes accessed per row activation
system.mem_ctrls1.bytesPerActivate::256-383        53041     41.85%     85.73% # Bytes accessed per row activation
system.mem_ctrls1.bytesPerActivate::384-511         5944      4.69%     90.42% # Bytes accessed per row activation
system.mem_ctrls1.bytesPerActivate::512-639         4392      3.47%     93.89% # Bytes accessed per row activation
system.mem_ctrls1.bytesPerActivate::640-767         2203      1.74%     95.62% # Bytes accessed per row activation
system.mem_ctrls1.bytesPerActivate::768-895         1446      1.14%     96.76% # Bytes accessed per row activation
system.mem_ctrls1.bytesPerActivate::896-1023         1075      0.85%     97.61% # Bytes accessed per row activation
system.mem_ctrls1.bytesPerActivate::1024-1151         3026      2.39%    100.00% # Bytes accessed per row activation
system.mem_ctrls1.bytesPerActivate::total       126739                       # Bytes accessed per row activation
system.mem_ctrls1.rdPerTurnAround::samples        36141                       # Reads before turning the bus around for writes
system.mem_ctrls1.rdPerTurnAround::mean      8.991699                       # Reads before turning the bus around for writes
system.mem_ctrls1.rdPerTurnAround::stdev    21.186956                       # Reads before turning the bus around for writes
system.mem_ctrls1.rdPerTurnAround::0-127        36101     99.89%     99.89% # Reads before turning the bus around for writes
system.mem_ctrls1.rdPerTurnAround::128-255           38      0.11%     99.99% # Reads before turning the bus around for writes
system.mem_ctrls1.rdPerTurnAround::1152-1279            1      0.00%    100.00% # Reads before turning the bus around for writes
system.mem_ctrls1.rdPerTurnAround::2816-2943            1      0.00%    100.00% # Reads before turning the bus around for writes
system.mem_ctrls1.rdPerTurnAround::total        36141                       # Reads before turning the bus around for writes
system.mem_ctrls1.wrPerTurnAround::samples        36141                       # Writes before turning the bus around for reads
system.mem_ctrls1.wrPerTurnAround::mean      5.587421                       # Writes before turning the bus around for reads
system.mem_ctrls1.wrPerTurnAround::gmean     5.394102                       # Writes before turning the bus around for reads
system.mem_ctrls1.wrPerTurnAround::stdev     1.928359                       # Writes before turning the bus around for reads
system.mem_ctrls1.wrPerTurnAround::4-7          32855     90.91%     90.91% # Writes before turning the bus around for reads
system.mem_ctrls1.wrPerTurnAround::8-11          2120      5.87%     96.77% # Writes before turning the bus around for reads
system.mem_ctrls1.wrPerTurnAround::12-15          723      2.00%     98.77% # Writes before turning the bus around for reads
system.mem_ctrls1.wrPerTurnAround::16-19          443      1.23%    100.00% # Writes before turning the bus around for reads
system.mem_ctrls1.wrPerTurnAround::total        36141                       # Writes before turning the bus around for reads
system.mem_ctrls1.totQLat                 28548034740                       # Total ticks spent queuing
system.mem_ctrls1.totMemAccLat            34641203490                       # Total ticks spent from burst creation until serviced by the DRAM
system.mem_ctrls1.totBusLat                1624845000                       # Total ticks spent in databus transfers
system.mem_ctrls1.avgQLat                    87848.49                       # Average queueing delay per DRAM burst
system.mem_ctrls1.avgBusLat                   5000.00                       # Average bus latency per DRAM burst
system.mem_ctrls1.avgMemAccLat              106598.49                       # Average memory access latency per DRAM burst
system.mem_ctrls1.avgRdBW                      159.14                       # Average DRAM read bandwidth in MiByte/s
system.mem_ctrls1.avgWrBW                       98.89                       # Average achieved write bandwidth in MiByte/s
system.mem_ctrls1.avgRdBWSys                   159.15                       # Average system read bandwidth in MiByte/s
system.mem_ctrls1.avgWrBWSys                    98.89                       # Average system write bandwidth in MiByte/s
system.mem_ctrls1.peakBW                     12800.00                       # Theoretical peak bandwidth in MiByte/s
system.mem_ctrls1.busUtil                        2.02                       # Data bus utilization in percentage
system.mem_ctrls1.busUtilRead                    1.24                       # Data bus utilization in percentage for reads
system.mem_ctrls1.busUtilWrite                   0.77                       # Data bus utilization in percentage for writes
system.mem_ctrls1.avgRdQLen                      1.23                       # Average read queue length when enqueuing
system.mem_ctrls1.avgWrQLen                      2.98                       # Average write queue length when enqueuing
system.mem_ctrls1.readRowHits                  255280                       # Number of row buffer hits during reads
system.mem_ctrls1.writeRowHits                 144878                       # Number of row buffer hits during writes
system.mem_ctrls1.readRowHitRate                78.56                       # Row buffer hit rate for reads
system.mem_ctrls1.writeRowHitRate               71.74                       # Row buffer hit rate for writes
system.mem_ctrls1.avgGap                    248019.40                       # Average gap between requests
system.mem_ctrls1.pageHitRate                   75.95                       # Row buffer hit rate, read and write combined
system.mem_ctrls1.memoryStateTime::IDLE   28548984000                       # Time in different power states
system.mem_ctrls1.memoryStateTime::REF     4363840000                       # Time in different power states
system.mem_ctrls1.memoryStateTime::PRE_PDN            0                       # Time in different power states
system.mem_ctrls1.memoryStateTime::ACT    97771869750                       # Time in different power states
system.mem_ctrls1.memoryStateTime::ACT_PDN            0                       # Time in different power states
system.mem_ctrls1.actEnergy::0              485949240                       # Energy for activate commands per rank (pJ)
system.mem_ctrls1.actEnergy::1              472174920                       # Energy for activate commands per rank (pJ)
system.mem_ctrls1.preEnergy::0              265150875                       # Energy for precharge commands per rank (pJ)
system.mem_ctrls1.preEnergy::1              257635125                       # Energy for precharge commands per rank (pJ)
system.mem_ctrls1.readEnergy::0            1275697800                       # Energy for read commands per rank (pJ)
system.mem_ctrls1.readEnergy::1            1258959000                       # Energy for read commands per rank (pJ)
system.mem_ctrls1.writeEnergy::0            656592480                       # Energy for write commands per rank (pJ)
system.mem_ctrls1.writeEnergy::1            651913920                       # Energy for write commands per rank (pJ)
system.mem_ctrls1.refreshEnergy::0         8535671040                       # Energy for refresh commands per rank (pJ)
system.mem_ctrls1.refreshEnergy::1         8535671040                       # Energy for refresh commands per rank (pJ)
system.mem_ctrls1.actBackEnergy::0        49132206495                       # Energy for active background per rank (pJ)
system.mem_ctrls1.actBackEnergy::1        48192924870                       # Energy for active background per rank (pJ)
system.mem_ctrls1.preBackEnergy::0        35312381250                       # Energy for precharge background per rank (pJ)
system.mem_ctrls1.preBackEnergy::1        36136312500                       # Energy for precharge background per rank (pJ)
system.mem_ctrls1.totalEnergy::0          95663649180                       # Total energy per rank (pJ)
system.mem_ctrls1.totalEnergy::1          95505591375                       # Total energy per rank (pJ)
system.mem_ctrls1.averagePower::0          732.018850                       # Core power per rank (mW)
system.mem_ctrls1.averagePower::1          730.809391                       # Core power per rank (mW)
system.mem_ctrls2.bytes_read::ruby.dir_cntrl2     20797504                       # Number of bytes read from this memory
system.mem_ctrls2.bytes_read::total          20797504                       # Number of bytes read from this memory
system.mem_ctrls2.bytes_written::ruby.dir_cntrl2     12924416                       # Number of bytes written to this memory
system.mem_ctrls2.bytes_written::total       12924416                       # Number of bytes written to this memory
system.mem_ctrls2.num_reads::ruby.dir_cntrl2       324961                       # Number of read requests responded to by this memory
system.mem_ctrls2.num_reads::total             324961                       # Number of read requests responded to by this memory
system.mem_ctrls2.num_writes::ruby.dir_cntrl2       201944                       # Number of write requests responded to by this memory
system.mem_ctrls2.num_writes::total            201944                       # Number of write requests responded to by this memory
system.mem_ctrls2.bw_read::ruby.dir_cntrl2    159138654                       # Total read bandwidth from this memory (bytes/s)
system.mem_ctrls2.bw_read::total            159138654                       # Total read bandwidth from this memory (bytes/s)
system.mem_ctrls2.bw_write::ruby.dir_cntrl2     98895241                       # Write bandwidth from this memory (bytes/s)
system.mem_ctrls2.bw_write::total            98895241                       # Write bandwidth from this memory (bytes/s)
system.mem_ctrls2.bw_total::ruby.dir_cntrl2    258033894                       # Total bandwidth to/from this memory (bytes/s)
system.mem_ctrls2.bw_total::total           258033894                       # Total bandwidth to/from this memory (bytes/s)
system.mem_ctrls2.readReqs                     324961                       # Number of read requests accepted
system.mem_ctrls2.writeReqs                    201944                       # Number of write requests accepted
system.mem_ctrls2.readBursts                   324961                       # Number of DRAM read bursts, including those serviced by the write queue
system.mem_ctrls2.writeBursts                  201944                       # Number of DRAM write bursts, including those merged in the write queue
system.mem_ctrls2.bytesReadDRAM              20796480                       # Total number of bytes read from DRAM
system.mem_ctrls2.bytesReadWrQ                   1024                       # Total number of bytes read from write queue
system.mem_ctrls2.bytesWritten               12924416                       # Total number of bytes written to DRAM
system.mem_ctrls2.bytesReadSys               20797504                       # Total read bytes from the system interface side
system.mem_ctrls2.bytesWrittenSys            12924416                       # Total written bytes from the system interface side
system.mem_ctrls2.servicedByWrQ                    16                       # Number of DRAM read bursts serviced by the write queue
system.mem_ctrls2.mergedWrBursts                    0                       # Number of DRAM write bursts merged with an existing one
system.mem_ctrls2.neitherReadNorWriteReqs            0                       # Number of requests that are neither read nor write
system.mem_ctrls2.perBankRdBursts::0            20056                       # Per bank write bursts
system.mem_ctrls2.perBankRdBursts::1            20679                       # Per bank write bursts
system.mem_ctrls2.perBankRdBursts::2            20244                       # Per bank write bursts
system.mem_ctrls2.perBankRdBursts::3            20730                       # Per bank write bursts
system.mem_ctrls2.perBankRdBursts::4            20380                       # Per bank write bursts
system.mem_ctrls2.perBankRdBursts::5            20525                       # Per bank write bursts
system.mem_ctrls2.perBankRdBursts::6            20418                       # Per bank write bursts
system.mem_ctrls2.perBankRdBursts::7            20489                       # Per bank write bursts
system.mem_ctrls2.perBankRdBursts::8            20154                       # Per bank write bursts
system.mem_ctrls2.perBankRdBursts::9            20392                       # Per bank write bursts
system.mem_ctrls2.perBankRdBursts::10           20159                       # Per bank write bursts
system.mem_ctrls2.perBankRdBursts::11           20586                       # Per bank write bursts
system.mem_ctrls2.perBankRdBursts::12           20032                       # Per bank write bursts
system.mem_ctrls2.perBankRdBursts::13           19856                       # Per bank write bursts
system.mem_ctrls2.perBankRdBursts::14           20076                       # Per bank write bursts
system.mem_ctrls2.perBankRdBursts::15           20169                       # Per bank write bursts
system.mem_ctrls2.perBankWrBursts::0            12663                       # Per bank write bursts
system.mem_ctrls2.perBankWrBursts::1            12612                       # Per bank write bursts
system.mem_ctrls2.perBankWrBursts::2            12542                       # Per bank write bursts
system.mem_ctrls2.perBankWrBursts::3            12767                       # Per bank write bursts
system.mem_ctrls2.perBankWrBursts::4            12597                       # Per bank write bursts
system.mem_ctrls2.perBankWrBursts::5            12702                       # Per bank write bursts
system.mem_ctrls2.perBankWrBursts::6            12638                       # Per bank write bursts
system.mem_ctrls2.perBankWrBursts::7            12794                       # Per bank write bursts
system.mem_ctrls2.perBankWrBursts::8            12544                       # Per bank write bursts
system.mem_ctrls2.perBankWrBursts::9            12771                       # Per bank write bursts
system.mem_ctrls2.perBankWrBursts::10           12550                       # Per bank write bursts
system.mem_ctrls2.perBankWrBursts::11           12528                       # Per bank write bursts
system.mem_ctrls2.perBankWrBursts::12           12468                       # Per bank write bursts
system.mem_ctrls2.perBankWrBursts::13           12469                       # Per bank write bursts
system.mem_ctrls2.perBankWrBursts::14           12712                       # Per bank write bursts
system.mem_ctrls2.perBankWrBursts::15           12587                       # Per bank write bursts
system.mem_ctrls2.numRdRetry                    56846                       # Number of times read queue was full causing retry
system.mem_ctrls2.numWrRetry                     2226                       # Number of times write queue was full causing retry
system.mem_ctrls2.totGap                 130687857500                       # Total gap between requests
system.mem_ctrls2.readPktSize::0                    0                       # Read request sizes (log2)
system.mem_ctrls2.readPktSize::1                    0                       # Read request sizes (log2)
system.mem_ctrls2.readPktSize::2                    0                       # Read request sizes (log2)
system.mem_ctrls2.readPktSize::3                    0                       # Read request sizes (log2)
system.mem_ctrls2.readPktSize::4                    0                       # Read request sizes (log2)
system.mem_ctrls2.readPktSize::5                    0                       # Read request sizes (log2)
system.mem_ctrls2.readPktSize::6               324961                       # Read request sizes (log2)
system.mem_ctrls2.writePktSize::0                   0                       # Write request sizes (log2)
system.mem_ctrls2.writePktSize::1                   0                       # Write request sizes (log2)
system.mem_ctrls2.writePktSize::2                   0                       # Write request sizes (log2)
system.mem_ctrls2.writePktSize::3                   0                       # Write request sizes (log2)
system.mem_ctrls2.writePktSize::4                   0                       # Write request sizes (log2)
system.mem_ctrls2.writePktSize::5                   0                       # Write request sizes (log2)
system.mem_ctrls2.writePktSize::6              201944                       # Write request sizes (log2)
system.mem_ctrls2.rdQLenPdf::0                 171363                       # What read queue length does an incoming req see
system.mem_ctrls2.rdQLenPdf::1                   1775                       # What read queue length does an incoming req see
system.mem_ctrls2.rdQLenPdf::2                   1629                       # What read queue length does an incoming req see
system.mem_ctrls2.rdQLenPdf::3                   1685                       # What read queue length does an incoming req see
system.mem_ctrls2.rdQLenPdf::4                   1831                       # What read queue length does an incoming req see
system.mem_ctrls2.rdQLenPdf::5                   2049                       # What read queue length does an incoming req see
system.mem_ctrls2.rdQLenPdf::6                   2189                       # What read queue length does an incoming req see
system.mem_ctrls2.rdQLenPdf::7                   2381                       # What read queue length does an incoming req see
system.mem_ctrls2.rdQLenPdf::8                   2536                       # What read queue length does an incoming req see
system.mem_ctrls2.rdQLenPdf::9                   2774                       # What read queue length does an incoming req see
system.mem_ctrls2.rdQLenPdf::10                  2818                       # What read queue length does an incoming req see
system.mem_ctrls2.rdQLenPdf::11                  2942                       # What read queue length does an incoming req see
system.mem_ctrls2.rdQLenPdf::12                  2993                       # What read queue length does an incoming req see
system.mem_ctrls2.rdQLenPdf::13                  2986                       # What read queue length does an incoming req see
system.mem_ctrls2.rdQLenPdf::14                  3149                       # What read queue length does an incoming req see
system.mem_ctrls2.rdQLenPdf::15                  3228                       # What read queue length does an incoming req see
system.mem_ctrls2.rdQLenPdf::16                  3141                       # What read queue length does an incoming req see
system.mem_ctrls2.rdQLenPdf::17                  3327                       # What read queue length does an incoming req see
system.mem_ctrls2.rdQLenPdf::18                  3466                       # What read queue length does an incoming req see
system.mem_ctrls2.rdQLenPdf::19                  3418                       # What read queue length does an incoming req see
system.mem_ctrls2.rdQLenPdf::20                  3538                       # What read queue length does an incoming req see
system.mem_ctrls2.rdQLenPdf::21                  3584                       # What read queue length does an incoming req see
system.mem_ctrls2.rdQLenPdf::22                  3551                       # What read queue length does an incoming req see
system.mem_ctrls2.rdQLenPdf::23                  3653                       # What read queue length does an incoming req see
system.mem_ctrls2.rdQLenPdf::24                  3701                       # What read queue length does an incoming req see
system.mem_ctrls2.rdQLenPdf::25                  3896                       # What read queue length does an incoming req see
system.mem_ctrls2.rdQLenPdf::26                  3982                       # What read queue length does an incoming req see
system.mem_ctrls2.rdQLenPdf::27                  4026                       # What read queue length does an incoming req see
system.mem_ctrls2.rdQLenPdf::28                  4033                       # What read queue length does an incoming req see
system.mem_ctrls2.rdQLenPdf::29                  4027                       # What read queue length does an incoming req see
system.mem_ctrls2.rdQLenPdf::30                  4135                       # What read queue length does an incoming req see
system.mem_ctrls2.rdQLenPdf::31                 61139                       # What read queue length does an incoming req see
system.mem_ctrls2.wrQLenPdf::0                  35841                       # What write queue length does an incoming req see
system.mem_ctrls2.wrQLenPdf::1                  36920                       # What write queue length does an incoming req see
system.mem_ctrls2.wrQLenPdf::2                  37402                       # What write queue length does an incoming req see
system.mem_ctrls2.wrQLenPdf::3                  37529                       # What write queue length does an incoming req see
system.mem_ctrls2.wrQLenPdf::4                  37675                       # What write queue length does an incoming req see
system.mem_ctrls2.wrQLenPdf::5                   5416                       # What write queue length does an incoming req see
system.mem_ctrls2.wrQLenPdf::6                   5837                       # What write queue length does an incoming req see
system.mem_ctrls2.wrQLenPdf::7                   5324                       # What write queue length does an incoming req see
system.mem_ctrls2.bytesPerActivate::samples       126295                       # Bytes accessed per row activation
system.mem_ctrls2.bytesPerActivate::mean   266.993436                       # Bytes accessed per row activation
system.mem_ctrls2.bytesPerActivate::gmean   206.892865                       # Bytes accessed per row activation
system.mem_ctrls2.bytesPerActivate::stdev   197.218214                       # Bytes accessed per row activation
system.mem_ctrls2.bytesPerActivate::0-127        25630     20.29%     20.29% # Bytes accessed per row activation
system.mem_ctrls2.bytesPerActivate::128-255        28807     22.81%     43.10% # Bytes accessed per row activation
system.mem_ctrls2.bytesPerActivate::256-383        53803     42.60%     85.70% # Bytes accessed per row activation
system.mem_ctrls2.bytesPerActivate::384-511         5919      4.69%     90.39% # Bytes accessed per row activation
system.mem_ctrls2.bytesPerActivate::512-639         4429      3.51%     93.90% # Bytes accessed per row activation
system.mem_ctrls2.bytesPerActivate::640-767         2181      1.73%     95.62% # Bytes accessed per row activation
system.mem_ctrls2.bytesPerActivate::768-895         1450      1.15%     96.77% # Bytes accessed per row activation
system.mem_ctrls2.bytesPerActivate::896-1023         1016      0.80%     97.58% # Bytes accessed per row activation
system.mem_ctrls2.bytesPerActivate::1024-1151         3060      2.42%    100.00% # Bytes accessed per row activation
system.mem_ctrls2.bytesPerActivate::total       126295                       # Bytes accessed per row activation
system.mem_ctrls2.rdPerTurnAround::samples        36146                       # Reads before turning the bus around for writes
system.mem_ctrls2.rdPerTurnAround::mean      8.989598                       # Reads before turning the bus around for writes
system.mem_ctrls2.rdPerTurnAround::stdev    21.232221                       # Reads before turning the bus around for writes
system.mem_ctrls2.rdPerTurnAround::0-127        36105     99.89%     99.89% # Reads before turning the bus around for writes
system.mem_ctrls2.rdPerTurnAround::128-255           39      0.11%     99.99% # Reads before turning the bus around for writes
system.mem_ctrls2.rdPerTurnAround::1152-1279            1      0.00%    100.00% # Reads before turning the bus around for writes
system.mem_ctrls2.rdPerTurnAround::2816-2943            1      0.00%    100.00% # Reads before turning the bus around for writes
system.mem_ctrls2.rdPerTurnAround::total        36146                       # Reads before turning the bus around for writes
system.mem_ctrls2.wrPerTurnAround::samples        36146                       # Writes before turning the bus around for reads
system.mem_ctrls2.wrPerTurnAround::mean      5.586898                       # Writes before turning the bus around for reads
system.mem_ctrls2.wrPerTurnAround::gmean     5.393574                       # Writes before turning the bus around for reads
system.mem_ctrls2.wrPerTurnAround::stdev     1.927971                       # Writes before turning the bus around for reads
system.mem_ctrls2.wrPerTurnAround::4-7          32876     90.95%     90.95% # Writes before turning the bus around for reads
system.mem_ctrls2.wrPerTurnAround::8-11          2102      5.82%     96.77% # Writes before turning the bus around for reads
system.mem_ctrls2.wrPerTurnAround::12-15          730      2.02%     98.79% # Writes before turning the bus around for reads
system.mem_ctrls2.wrPerTurnAround::16-19          438      1.21%    100.00% # Writes before turning the bus around for reads
system.mem_ctrls2.wrPerTurnAround::total        36146                       # Writes before turning the bus around for reads
system.mem_ctrls2.totQLat                 28512655878                       # Total ticks spent queuing
system.mem_ctrls2.totMemAccLat            34605374628                       # Total ticks spent from burst creation until serviced by the DRAM
system.mem_ctrls2.totBusLat                1624725000                       # Total ticks spent in databus transfers
system.mem_ctrls2.avgQLat                    87746.10                       # Average queueing delay per DRAM burst
system.mem_ctrls2.avgBusLat                   5000.00                       # Average bus latency per DRAM burst
system.mem_ctrls2.avgMemAccLat              106496.10                       # Average memory access latency per DRAM burst
system.mem_ctrls2.avgRdBW                      159.13                       # Average DRAM read bandwidth in MiByte/s
system.mem_ctrls2.avgWrBW                       98.90                       # Average achieved write bandwidth in MiByte/s
system.mem_ctrls2.avgRdBWSys                   159.14                       # Average system read bandwidth in MiByte/s
system.mem_ctrls2.avgWrBWSys                    98.90                       # Average system write bandwidth in MiByte/s
system.mem_ctrls2.peakBW                     12800.00                       # Theoretical peak bandwidth in MiByte/s
system.mem_ctrls2.busUtil                        2.02                       # Data bus utilization in percentage
system.mem_ctrls2.busUtilRead                    1.24                       # Data bus utilization in percentage for reads
system.mem_ctrls2.busUtilWrite                   0.77                       # Data bus utilization in percentage for writes
system.mem_ctrls2.avgRdQLen                      1.23                       # Average read queue length when enqueuing
system.mem_ctrls2.avgWrQLen                      2.95                       # Average write queue length when enqueuing
system.mem_ctrls2.readRowHits                  255287                       # Number of row buffer hits during reads
system.mem_ctrls2.writeRowHits                 145301                       # Number of row buffer hits during writes
system.mem_ctrls2.readRowHitRate                78.56                       # Row buffer hit rate for reads
system.mem_ctrls2.writeRowHitRate               71.95                       # Row buffer hit rate for writes
system.mem_ctrls2.avgGap                    248029.26                       # Average gap between requests
system.mem_ctrls2.pageHitRate                   76.03                       # Row buffer hit rate, read and write combined
system.mem_ctrls2.memoryStateTime::IDLE   28403646750                       # Time in different power states
system.mem_ctrls2.memoryStateTime::REF     4363840000                       # Time in different power states
system.mem_ctrls2.memoryStateTime::PRE_PDN            0                       # Time in different power states
system.mem_ctrls2.memoryStateTime::ACT    97917309750                       # Time in different power states
system.mem_ctrls2.memoryStateTime::ACT_PDN            0                       # Time in different power states
system.mem_ctrls2.actEnergy::0              484081920                       # Energy for activate commands per rank (pJ)
system.mem_ctrls2.actEnergy::1              470685600                       # Energy for activate commands per rank (pJ)
system.mem_ctrls2.preEnergy::0              264132000                       # Energy for precharge commands per rank (pJ)
system.mem_ctrls2.preEnergy::1              256822500                       # Energy for precharge commands per rank (pJ)
system.mem_ctrls2.readEnergy::0            1275401400                       # Energy for read commands per rank (pJ)
system.mem_ctrls2.readEnergy::1            1259068200                       # Energy for read commands per rank (pJ)
system.mem_ctrls2.writeEnergy::0            656514720                       # Energy for write commands per rank (pJ)
system.mem_ctrls2.writeEnergy::1            652050000                       # Energy for write commands per rank (pJ)
system.mem_ctrls2.refreshEnergy::0         8535671040                       # Energy for refresh commands per rank (pJ)
system.mem_ctrls2.refreshEnergy::1         8535671040                       # Energy for refresh commands per rank (pJ)
system.mem_ctrls2.actBackEnergy::0        48864243510                       # Energy for active background per rank (pJ)
system.mem_ctrls2.actBackEnergy::1        47936369295                       # Energy for active background per rank (pJ)
system.mem_ctrls2.preBackEnergy::0        35547436500                       # Energy for precharge background per rank (pJ)
system.mem_ctrls2.preBackEnergy::1        36361361250                       # Energy for precharge background per rank (pJ)
system.mem_ctrls2.totalEnergy::0          95627481090                       # Total energy per rank (pJ)
system.mem_ctrls2.totalEnergy::1          95472027885                       # Total energy per rank (pJ)
system.mem_ctrls2.averagePower::0          731.742092                       # Core power per rank (mW)
system.mem_ctrls2.averagePower::1          730.552563                       # Core power per rank (mW)
system.mem_ctrls3.bytes_read::ruby.dir_cntrl3     20776192                       # Number of bytes read from this memory
system.mem_ctrls3.bytes_read::total          20776192                       # Number of bytes read from this memory
system.mem_ctrls3.bytes_written::ruby.dir_cntrl3     12923008                       # Number of bytes written to this memory
system.mem_ctrls3.bytes_written::total       12923008                       # Number of bytes written to this memory
system.mem_ctrls3.num_reads::ruby.dir_cntrl3       324628                       # Number of read requests responded to by this memory
system.mem_ctrls3.num_reads::total             324628                       # Number of read requests responded to by this memory
system.mem_ctrls3.num_writes::ruby.dir_cntrl3       201922                       # Number of write requests responded to by this memory
system.mem_ctrls3.num_writes::total            201922                       # Number of write requests responded to by this memory
system.mem_ctrls3.bw_read::ruby.dir_cntrl3    158975578                       # Total read bandwidth from this memory (bytes/s)
system.mem_ctrls3.bw_read::total            158975578                       # Total read bandwidth from this memory (bytes/s)
system.mem_ctrls3.bw_write::ruby.dir_cntrl3     98884467                       # Write bandwidth from this memory (bytes/s)
system.mem_ctrls3.bw_write::total            98884467                       # Write bandwidth from this memory (bytes/s)
system.mem_ctrls3.bw_total::ruby.dir_cntrl3    257860045                       # Total bandwidth to/from this memory (bytes/s)
system.mem_ctrls3.bw_total::total           257860045                       # Total bandwidth to/from this memory (bytes/s)
system.mem_ctrls3.readReqs                     324628                       # Number of read requests accepted
system.mem_ctrls3.writeReqs                    201922                       # Number of write requests accepted
system.mem_ctrls3.readBursts                   324628                       # Number of DRAM read bursts, including those serviced by the write queue
system.mem_ctrls3.writeBursts                  201922                       # Number of DRAM write bursts, including those merged in the write queue
system.mem_ctrls3.bytesReadDRAM              20775360                       # Total number of bytes read from DRAM
system.mem_ctrls3.bytesReadWrQ                    832                       # Total number of bytes read from write queue
system.mem_ctrls3.bytesWritten               12922752                       # Total number of bytes written to DRAM
system.mem_ctrls3.bytesReadSys               20776192                       # Total read bytes from the system interface side
system.mem_ctrls3.bytesWrittenSys            12923008                       # Total written bytes from the system interface side
system.mem_ctrls3.servicedByWrQ                    13                       # Number of DRAM read bursts serviced by the write queue
system.mem_ctrls3.mergedWrBursts                    0                       # Number of DRAM write bursts merged with an existing one
system.mem_ctrls3.neitherReadNorWriteReqs            0                       # Number of requests that are neither read nor write
system.mem_ctrls3.perBankRdBursts::0            20050                       # Per bank write bursts
system.mem_ctrls3.perBankRdBursts::1            20651                       # Per bank write bursts
system.mem_ctrls3.perBankRdBursts::2            20160                       # Per bank write bursts
system.mem_ctrls3.perBankRdBursts::3            20704                       # Per bank write bursts
system.mem_ctrls3.perBankRdBursts::4            20313                       # Per bank write bursts
system.mem_ctrls3.perBankRdBursts::5            20518                       # Per bank write bursts
system.mem_ctrls3.perBankRdBursts::6            20429                       # Per bank write bursts
system.mem_ctrls3.perBankRdBursts::7            20472                       # Per bank write bursts
system.mem_ctrls3.perBankRdBursts::8            20145                       # Per bank write bursts
system.mem_ctrls3.perBankRdBursts::9            20381                       # Per bank write bursts
system.mem_ctrls3.perBankRdBursts::10           20194                       # Per bank write bursts
system.mem_ctrls3.perBankRdBursts::11           20539                       # Per bank write bursts
system.mem_ctrls3.perBankRdBursts::12           19976                       # Per bank write bursts
system.mem_ctrls3.perBankRdBursts::13           19848                       # Per bank write bursts
system.mem_ctrls3.perBankRdBursts::14           20096                       # Per bank write bursts
system.mem_ctrls3.perBankRdBursts::15           20139                       # Per bank write bursts
system.mem_ctrls3.perBankWrBursts::0            12669                       # Per bank write bursts
system.mem_ctrls3.perBankWrBursts::1            12602                       # Per bank write bursts
system.mem_ctrls3.perBankWrBursts::2            12550                       # Per bank write bursts
system.mem_ctrls3.perBankWrBursts::3            12757                       # Per bank write bursts
system.mem_ctrls3.perBankWrBursts::4            12595                       # Per bank write bursts
system.mem_ctrls3.perBankWrBursts::5            12705                       # Per bank write bursts
system.mem_ctrls3.perBankWrBursts::6            12634                       # Per bank write bursts
system.mem_ctrls3.perBankWrBursts::7            12787                       # Per bank write bursts
system.mem_ctrls3.perBankWrBursts::8            12541                       # Per bank write bursts
system.mem_ctrls3.perBankWrBursts::9            12773                       # Per bank write bursts
system.mem_ctrls3.perBankWrBursts::10           12550                       # Per bank write bursts
system.mem_ctrls3.perBankWrBursts::11           12534                       # Per bank write bursts
system.mem_ctrls3.perBankWrBursts::12           12464                       # Per bank write bursts
system.mem_ctrls3.perBankWrBursts::13           12474                       # Per bank write bursts
system.mem_ctrls3.perBankWrBursts::14           12714                       # Per bank write bursts
system.mem_ctrls3.perBankWrBursts::15           12569                       # Per bank write bursts
system.mem_ctrls3.numRdRetry                    52278                       # Number of times read queue was full causing retry
system.mem_ctrls3.numWrRetry                     2028                       # Number of times write queue was full causing retry
system.mem_ctrls3.totGap                 130687130500                       # Total gap between requests
system.mem_ctrls3.readPktSize::0                    0                       # Read request sizes (log2)
system.mem_ctrls3.readPktSize::1                    0                       # Read request sizes (log2)
system.mem_ctrls3.readPktSize::2                    0                       # Read request sizes (log2)
system.mem_ctrls3.readPktSize::3                    0                       # Read request sizes (log2)
system.mem_ctrls3.readPktSize::4                    0                       # Read request sizes (log2)
system.mem_ctrls3.readPktSize::5                    0                       # Read request sizes (log2)
system.mem_ctrls3.readPktSize::6               324628                       # Read request sizes (log2)
system.mem_ctrls3.writePktSize::0                   0                       # Write request sizes (log2)
system.mem_ctrls3.writePktSize::1                   0                       # Write request sizes (log2)
system.mem_ctrls3.writePktSize::2                   0                       # Write request sizes (log2)
system.mem_ctrls3.writePktSize::3                   0                       # Write request sizes (log2)
system.mem_ctrls3.writePktSize::4                   0                       # Write request sizes (log2)
system.mem_ctrls3.writePktSize::5                   0                       # Write request sizes (log2)
system.mem_ctrls3.writePktSize::6              201922                       # Write request sizes (log2)
system.mem_ctrls3.rdQLenPdf::0                 170964                       # What read queue length does an incoming req see
system.mem_ctrls3.rdQLenPdf::1                   1863                       # What read queue length does an incoming req see
system.mem_ctrls3.rdQLenPdf::2                   1611                       # What read queue length does an incoming req see
system.mem_ctrls3.rdQLenPdf::3                   1748                       # What read queue length does an incoming req see
system.mem_ctrls3.rdQLenPdf::4                   1840                       # What read queue length does an incoming req see
system.mem_ctrls3.rdQLenPdf::5                   2074                       # What read queue length does an incoming req see
system.mem_ctrls3.rdQLenPdf::6                   2343                       # What read queue length does an incoming req see
system.mem_ctrls3.rdQLenPdf::7                   2608                       # What read queue length does an incoming req see
system.mem_ctrls3.rdQLenPdf::8                   2709                       # What read queue length does an incoming req see
system.mem_ctrls3.rdQLenPdf::9                   2888                       # What read queue length does an incoming req see
system.mem_ctrls3.rdQLenPdf::10                  3051                       # What read queue length does an incoming req see
system.mem_ctrls3.rdQLenPdf::11                  3099                       # What read queue length does an incoming req see
system.mem_ctrls3.rdQLenPdf::12                  3154                       # What read queue length does an incoming req see
system.mem_ctrls3.rdQLenPdf::13                  3222                       # What read queue length does an incoming req see
system.mem_ctrls3.rdQLenPdf::14                  3229                       # What read queue length does an incoming req see
system.mem_ctrls3.rdQLenPdf::15                  3399                       # What read queue length does an incoming req see
system.mem_ctrls3.rdQLenPdf::16                  3491                       # What read queue length does an incoming req see
system.mem_ctrls3.rdQLenPdf::17                  3720                       # What read queue length does an incoming req see
system.mem_ctrls3.rdQLenPdf::18                  3831                       # What read queue length does an incoming req see
system.mem_ctrls3.rdQLenPdf::19                  3657                       # What read queue length does an incoming req see
system.mem_ctrls3.rdQLenPdf::20                  3623                       # What read queue length does an incoming req see
system.mem_ctrls3.rdQLenPdf::21                  3744                       # What read queue length does an incoming req see
system.mem_ctrls3.rdQLenPdf::22                  3822                       # What read queue length does an incoming req see
system.mem_ctrls3.rdQLenPdf::23                  3914                       # What read queue length does an incoming req see
system.mem_ctrls3.rdQLenPdf::24                  3940                       # What read queue length does an incoming req see
[...]
system.ruby.L2Cache_Controller.S_I.Ack_all::total           32                      
system.ruby.L2Cache_Controller.ISS.Mem_Data |       25574      5.07%      5.07% |       15486      3.07%      8.14% |       15518      3.08%     11.22% |       15471      3.07%     14.28% |       15448      3.06%     17.35% |       15421      3.06%     20.41% |       15428      3.06%     23.46% |       15427      3.06%     26.52% |       15459      3.06%     29.59% |       15476      3.07%     32.66% |       15501      3.07%     35.73% |       15426      3.06%     38.79% |       15439      3.06%     41.85% |       15446      3.06%     44.91% |       15454      3.06%     47.98% |       15414      3.06%     51.03% |       15428      3.06%     54.09% |       15421      3.06%     57.15% |       15447      3.06%     60.21% |       15427      3.06%     63.27% |       15451      3.06%     66.33% |       15463      3.07%     69.40% |       15456      3.06%     72.46% |       15437      3.06%     75.52% |       15450      3.06%     78.59% |       15449      3.06%     81.65% |       15428      3.06%     84.71% |       15409      3.06%     87.76% |       15452      3.06%     90.83% |       15412      3.06%     93.88% |       15414      3.06%     96.94% |       15440      3.06%    100.00%
system.ruby.L2Cache_Controller.ISS.Mem_Data::total       504372                      
system.ruby.L2Cache_Controller.IS.Mem_Data |         503      3.21%      3.21% |         454      2.89%      6.10% |         438      2.79%      8.89% |         449      2.86%     11.76% |         449      2.86%     14.62% |         430      2.74%     17.36% |         472      3.01%     20.37% |         491      3.13%     23.50% |         505      3.22%     26.72% |         445      2.84%     29.56% |         487      3.10%     32.66% |         498      3.17%     35.83% |         551      3.51%     39.35% |         523      3.33%     42.68% |         510      3.25%     45.93% |         492      3.14%     49.07% |         515      3.28%     52.35% |         532      3.39%     55.74% |         529      3.37%     59.12% |         483      3.08%     62.20% |         473      3.02%     65.21% |         523      3.33%     68.55% |         478      3.05%     71.59% |         451      2.88%     74.47% |         519      3.31%     77.78% |         578      3.68%     81.46% |         522      3.33%     84.79% |         479      3.05%     87.84% |         456      2.91%     90.75% |         511      3.26%     94.01% |         487      3.10%     97.11% |         453      2.89%    100.00%
system.ruby.L2Cache_Controller.IS.Mem_Data::total        15686                      
system.ruby.L2Cache_Controller.IM.Mem_Data |       24774      3.14%      3.14% |       24665      3.12%      6.26% |       24674      3.12%      9.38% |       24679      3.13%     12.51% |       24670      3.12%     15.63% |       24674      3.12%     18.76% |       24675      3.12%     21.88% |       24666      3.12%     25.01% |       24681      3.13%     28.13% |       24680      3.13%     31.26% |       24663      3.12%     34.38% |       24687      3.13%     37.51% |       24674      3.12%     40.63% |       24671      3.12%     43.75% |       24669      3.12%     46.88% |       24662      3.12%     50.00% |       24683      3.13%     53.13% |       24680      3.13%     56.25% |       24677      3.12%     59.38% |       24675      3.12%     62.50% |       24689      3.13%     65.63% |       24696      3.13%     68.75% |       24670      3.12%     71.88% |       24674      3.12%     75.00% |       24686      3.13%     78.13% |       24680      3.13%     81.25% |       24683      3.13%     84.38% |       24670      3.12%     87.50% |       24671      3.12%     90.63% |       24672      3.12%     93.75% |       24681      3.13%     96.88% |       24668      3.12%    100.00%
system.ruby.L2Cache_Controller.IM.Mem_Data::total       789719                      
system.ruby.L2Cache_Controller.SS_MB.Exclusive_Unblock |           2      4.17%      4.17% |           4      8.33%     12.50% |           5     10.42%     22.92% |           3      6.25%     29.17% |           0      0.00%     29.17% |           0      0.00%     29.17% |           0      0.00%     29.17% |           0      0.00%     29.17% |           1      2.08%     31.25% |           1      2.08%     33.33% |           0      0.00%     33.33% |           1      2.08%     35.42% |           6     12.50%     47.92% |           0      0.00%     47.92% |           2      4.17%     52.08% |           0      0.00%     52.08% |           0      0.00%     52.08% |           0      0.00%     52.08% |           7     14.58%     66.67% |           5     10.42%     77.08% |           1      2.08%     79.17% |           0      0.00%     79.17% |           0      0.00%     79.17% |           0      0.00%     79.17% |           1      2.08%     81.25% |           1      2.08%     83.33% |           1      2.08%     85.42% |           1      2.08%     87.50% |           5     10.42%     97.92% |           0      0.00%     97.92% |           1      2.08%    100.00% |           0      0.00%    100.00%
system.ruby.L2Cache_Controller.SS_MB.Exclusive_Unblock::total           48                      
system.ruby.L2Cache_Controller.MT_MB.L1_PUTX |           7    100.00%    100.00% |           0      0.00%    100.00% |           0      0.00%    100.00% |           0      0.00%    100.00% |           0      0.00%    100.00% |           0      0.00%    100.00% |           0      0.00%    100.00% |           0      0.00%    100.00% |           0      0.00%    100.00% |           0      0.00%    100.00% |           0      0.00%    100.00% |           0      0.00%    100.00% |           0      0.00%    100.00% |           0      0.00%    100.00% |           0      0.00%    100.00% |           0      0.00%    100.00% |           0      0.00%    100.00% |           0      0.00%    100.00% |           0      0.00%    100.00% |           0      0.00%    100.00% |           0      0.00%    100.00% |           0      0.00%    100.00% |           0      0.00%    100.00% |           0      0.00%    100.00% |           0      0.00%    100.00% |           0      0.00%    100.00% |           0      0.00%    100.00% |           0      0.00%    100.00% |           0      0.00%    100.00% |           0      0.00%    100.00% |           0      0.00%    100.00% |           0      0.00%    100.00%
system.ruby.L2Cache_Controller.MT_MB.L1_PUTX::total            7                      
system.ruby.L2Cache_Controller.MT_MB.Exclusive_Unblock |      171914      9.58%      9.58% |       54285      3.03%     12.61% |       49286      2.75%     15.35% |       52996      2.95%     18.31% |       53516      2.98%     21.29% |       49519      2.76%     24.05% |       45957      2.56%     26.61% |       45967      2.56%     29.17% |       51554      2.87%     32.05% |       49823      2.78%     34.82% |       54069      3.01%     37.84% |       51036      2.84%     40.68% |       48293      2.69%     43.37% |       46922      2.62%     45.99% |       47891      2.67%     48.66% |       46616      2.60%     51.26% |       50576      2.82%     54.08% |       48375      2.70%     56.77% |       49902      2.78%     59.55% |       54014      3.01%     62.56% |       54534      3.04%     65.60% |       63393      3.53%     69.14% |       58002      3.23%     72.37% |       53248      2.97%     75.34% |       53481      2.98%     78.32% |       51446      2.87%     81.19% |       52513      2.93%     84.11% |       52309      2.92%     87.03% |       55512      3.09%     90.12% |       55167      3.07%     93.20% |       63475      3.54%     96.73% |       58601      3.27%    100.00%
system.ruby.L2Cache_Controller.MT_MB.Exclusive_Unblock::total      1794192                      
system.ruby.L2Cache_Controller.MT_IIB.WB_Data |           0      0.00%      0.00% |           0      0.00%      0.00% |           1      7.14%      7.14% |           1      7.14%     14.29% |           1      7.14%     21.43% |           0      0.00%     21.43% |           1      7.14%     28.57% |           0      0.00%     28.57% |           1      7.14%     35.71% |           1      7.14%     42.86% |           1      7.14%     50.00% |           1      7.14%     57.14% |           1      7.14%     64.29% |           0      0.00%     64.29% |           1      7.14%     71.43% |           1      7.14%     78.57% |           1      7.14%     85.71% |           1      7.14%     92.86% |           1      7.14%    100.00% |           0      0.00%    100.00% |           0      0.00%    100.00% |           0      0.00%    100.00% |           0      0.00%    100.00% |           0      0.00%    100.00% |           0      0.00%    100.00% |           0      0.00%    100.00% |           0      0.00%    100.00% |           0      0.00%    100.00% |           0      0.00%    100.00% |           0      0.00%    100.00% |           0      0.00%    100.00% |           0      0.00%    100.00%
system.ruby.L2Cache_Controller.MT_IIB.WB_Data::total           14                      
system.ruby.L2Cache_Controller.MT_IIB.WB_Data_clean |           6    100.00%    100.00% |           0      0.00%    100.00% |           0      0.00%    100.00% |           0      0.00%    100.00% |           0      0.00%    100.00% |           0      0.00%    100.00% |           0      0.00%    100.00% |           0      0.00%    100.00% |           0      0.00%    100.00% |           0      0.00%    100.00% |           0      0.00%    100.00% |           0      0.00%    100.00% |           0      0.00%    100.00% |           0      0.00%    100.00% |           0      0.00%    100.00% |           0      0.00%    100.00% |           0      0.00%    100.00% |           0      0.00%    100.00% |           0      0.00%    100.00% |           0      0.00%    100.00% |           0      0.00%    100.00% |           0      0.00%    100.00% |           0      0.00%    100.00% |           0      0.00%    100.00% |           0      0.00%    100.00% |           0      0.00%    100.00% |           0      0.00%    100.00% |           0      0.00%    100.00% |           0      0.00%    100.00% |           0      0.00%    100.00% |           0      0.00%    100.00% |           0      0.00%    100.00%
system.ruby.L2Cache_Controller.MT_IIB.WB_Data_clean::total            6                      
system.ruby.L2Cache_Controller.MT_IIB.Unblock |           0      0.00%      0.00% |           0      0.00%      0.00% |           0      0.00%      0.00% |           0      0.00%      0.00% |           0      0.00%      0.00% |           0      0.00%      0.00% |           0      0.00%      0.00% |           1     50.00%     50.00% |           0      0.00%     50.00% |           0      0.00%     50.00% |           0      0.00%     50.00% |           0      0.00%     50.00% |           0      0.00%     50.00% |           1     50.00%    100.00% |           0      0.00%    100.00% |           0      0.00%    100.00% |           0      0.00%    100.00% |           0      0.00%    100.00% |           0      0.00%    100.00% |           0      0.00%    100.00% |           0      0.00%    100.00% |           0      0.00%    100.00% |           0      0.00%    100.00% |           0      0.00%    100.00% |           0      0.00%    100.00% |           0      0.00%    100.00% |           0      0.00%    100.00% |           0      0.00%    100.00% |           0      0.00%    100.00% |           0      0.00%    100.00% |           0      0.00%    100.00% |           0      0.00%    100.00%
system.ruby.L2Cache_Controller.MT_IIB.Unblock::total            2                      
system.ruby.L2Cache_Controller.MT_IB.WB_Data |           0      0.00%      0.00% |           0      0.00%      0.00% |           0      0.00%      0.00% |           0      0.00%      0.00% |           0      0.00%      0.00% |           0      0.00%      0.00% |           0      0.00%      0.00% |           1     50.00%     50.00% |           0      0.00%     50.00% |           0      0.00%     50.00% |           0      0.00%     50.00% |           0      0.00%     50.00% |           0      0.00%     50.00% |           1     50.00%    100.00% |           0      0.00%    100.00% |           0      0.00%    100.00% |           0      0.00%    100.00% |           0      0.00%    100.00% |           0      0.00%    100.00% |           0      0.00%    100.00% |           0      0.00%    100.00% |           0      0.00%    100.00% |           0      0.00%    100.00% |           0      0.00%    100.00% |           0      0.00%    100.00% |           0      0.00%    100.00% |           0      0.00%    100.00% |           0      0.00%    100.00% |           0      0.00%    100.00% |           0      0.00%    100.00% |           0      0.00%    100.00% |           0      0.00%    100.00%
system.ruby.L2Cache_Controller.MT_IB.WB_Data::total            2                      
system.ruby.L2Cache_Controller.MT_SB.Unblock |           6     30.00%     30.00% |           0      0.00%     30.00% |           1      5.00%     35.00% |           1      5.00%     40.00% |           1      5.00%     45.00% |           0      0.00%     45.00% |           1      5.00%     50.00% |           0      0.00%     50.00% |           1      5.00%     55.00% |           1      5.00%     60.00% |           1      5.00%     65.00% |           1      5.00%     70.00% |           1      5.00%     75.00% |           0      0.00%     75.00% |           1      5.00%     80.00% |           1      5.00%     85.00% |           1      5.00%     90.00% |           1      5.00%     95.00% |           1      5.00%    100.00% |           0      0.00%    100.00% |           0      0.00%    100.00% |           0      0.00%    100.00% |           0      0.00%    100.00% |           0      0.00%    100.00% |           0      0.00%    100.00% |           0      0.00%    100.00% |           0      0.00%    100.00% |           0      0.00%    100.00% |           0      0.00%    100.00% |           0      0.00%    100.00% |           0      0.00%    100.00% |           0      0.00%    100.00%
system.ruby.L2Cache_Controller.MT_SB.Unblock::total           20                      
system.ruby.SimicsNetworkPortInterface_Controller.MessageSend |       38534     12.03%     12.03% |      160195     50.00%     62.03% |       15143      4.73%     66.75% |       16560      5.17%     71.92% |       14972      4.67%     76.60% |       16515      5.15%     81.75% |       14936      4.66%     86.41% |       17472      5.45%     91.87% |       13050      4.07%     95.94% |       13013      4.06%    100.00% |           0      0.00%    100.00% |           0      0.00%    100.00% |           0      0.00%    100.00% |           0      0.00%    100.00% |           0      0.00%    100.00% |           0      0.00%    100.00% |           0      0.00%    100.00% |           0      0.00%    100.00% |           0      0.00%    100.00% |           0      0.00%    100.00% |           0      0.00%    100.00% |           0      0.00%    100.00% |           0      0.00%    100.00% |           0      0.00%    100.00% |           0      0.00%    100.00% |           0      0.00%    100.00% |           0      0.00%    100.00% |           0      0.00%    100.00% |           0      0.00%    100.00% |           0      0.00%    100.00% |           0      0.00%    100.00% |           0      0.00%    100.00%
system.ruby.SimicsNetworkPortInterface_Controller.MessageSend::total       320390                      
system.ruby.SimicsNetworkPortInterface_Controller.MessageRecv |       38534     12.03%     12.03% |      160195     50.00%     62.03% |       15143      4.73%     66.75% |       16560      5.17%     71.92% |       14972      4.67%     76.60% |       16515      5.15%     81.75% |       14936      4.66%     86.41% |       17472      5.45%     91.87% |       13050      4.07%     95.94% |       13013      4.06%    100.00% |           0      0.00%    100.00% |           0      0.00%    100.00% |           0      0.00%    100.00% |           0      0.00%    100.00% |           0      0.00%    100.00% |           0      0.00%    100.00% |           0      0.00%    100.00% |           0      0.00%    100.00% |           0      0.00%    100.00% |           0      0.00%    100.00% |           0      0.00%    100.00% |           0      0.00%    100.00% |           0      0.00%    100.00% |           0      0.00%    100.00% |           0      0.00%    100.00% |           0      0.00%    100.00% |           0      0.00%    100.00% |           0      0.00%    100.00% |           0      0.00%    100.00% |           0      0.00%    100.00% |           0      0.00%    100.00% |           0      0.00%    100.00%
system.ruby.SimicsNetworkPortInterface_Controller.MessageRecv::total       320390                      
system.ruby.SimicsNetworkPortInterface_Controller.A.MessageSend |       38534     12.03%     12.03% |      160195     50.00%     62.03% |       15143      4.73%     66.75% |       16560      5.17%     71.92% |       14972      4.67%     76.60% |       16515      5.15%     81.75% |       14936      4.66%     86.41% |       17472      5.45%     91.87% |       13050      4.07%     95.94% |       13013      4.06%    100.00% |           0      0.00%    100.00% |           0      0.00%    100.00% |           0      0.00%    100.00% |           0      0.00%    100.00% |           0      0.00%    100.00% |           0      0.00%    100.00% |           0      0.00%    100.00% |           0      0.00%    100.00% |           0      0.00%    100.00% |           0      0.00%    100.00% |           0      0.00%    100.00% |           0      0.00%    100.00% |           0      0.00%    100.00% |           0      0.00%    100.00% |           0      0.00%    100.00% |           0      0.00%    100.00% |           0      0.00%    100.00% |           0      0.00%    100.00% |           0      0.00%    100.00% |           0      0.00%    100.00% |           0      0.00%    100.00% |           0      0.00%    100.00%
system.ruby.SimicsNetworkPortInterface_Controller.A.MessageSend::total       320390                      
system.ruby.SimicsNetworkPortInterface_Controller.A.MessageRecv |       38534     12.03%     12.03% |      160195     50.00%     62.03% |       15143      4.73%     66.75% |       16560      5.17%     71.92% |       14972      4.67%     76.60% |       16515      5.15%     81.75% |       14936      4.66%     86.41% |       17472      5.45%     91.87% |       13050      4.07%     95.94% |       13013      4.06%    100.00% |           0      0.00%    100.00% |           0      0.00%    100.00% |           0      0.00%    100.00% |           0      0.00%    100.00% |           0      0.00%    100.00% |           0      0.00%    100.00% |           0      0.00%    100.00% |           0      0.00%    100.00% |           0      0.00%    100.00% |           0      0.00%    100.00% |           0      0.00%    100.00% |           0      0.00%    100.00% |           0      0.00%    100.00% |           0      0.00%    100.00% |           0      0.00%    100.00% |           0      0.00%    100.00% |           0      0.00%    100.00% |           0      0.00%    100.00% |           0      0.00%    100.00% |           0      0.00%    100.00% |           0      0.00%    100.00% |           0      0.00%    100.00%
system.ruby.SimicsNetworkPortInterface_Controller.A.MessageRecv::total       320390                      
system.switch_cpus.kern.inst.arm                    0                       # number of arm instructions executed
system.switch_cpus.kern.inst.quiesce                0                       # number of quiesce instructions executed

---------- End Simulation Statistics   ----------
