
---------- Begin Simulation Statistics ----------
sim_seconds                                  0.059743                       # Number of seconds simulated
sim_ticks                                 59743336500                       # Number of ticks simulated
final_tick                               5235911415000                       # Number of ticks from beginning of simulation (restored from checkpoints and never reset)
sim_freq                                 1000000000000                       # Frequency of simulated ticks
host_inst_rate                                  21095                       # Simulator instruction rate (inst/s)
host_op_rate                                    37531                       # Simulator op (including micro ops) rate (op/s)
host_tick_rate                               31724597                       # Simulator tick rate (ticks/s)
host_mem_usage                                4817636                       # Number of bytes of host memory used
host_seconds                                  1883.19                       # Real time elapsed on the host
sim_insts                                    39725116                       # Number of instructions simulated
sim_ops                                      70677502                       # Number of ops (including micro ops) simulated
system.voltage_domain.voltage                       1                       # Voltage in Volts
system.clk_domain.clock                           500                       # Clock period in ticks
system.mem_ctrls0.bytes_read::ruby.dir_cntrl0     14034624                       # Number of bytes read from this memory
system.mem_ctrls0.bytes_read::total          14034624                       # Number of bytes read from this memory
system.mem_ctrls0.bytes_written::ruby.dir_cntrl0      4007808                       # Number of bytes written to this memory
system.mem_ctrls0.bytes_written::total        4007808                       # Number of bytes written to this memory
system.mem_ctrls0.num_reads::ruby.dir_cntrl0       219291                       # Number of read requests responded to by this memory
system.mem_ctrls0.num_reads::total             219291                       # Number of read requests responded to by this memory
system.mem_ctrls0.num_writes::ruby.dir_cntrl0        62622                       # Number of write requests responded to by this memory
system.mem_ctrls0.num_writes::total             62622                       # Number of write requests responded to by this memory
system.mem_ctrls0.bw_read::ruby.dir_cntrl0    234915303                       # Total read bandwidth from this memory (bytes/s)
system.mem_ctrls0.bw_read::total            234915303                       # Total read bandwidth from this memory (bytes/s)
system.mem_ctrls0.bw_write::ruby.dir_cntrl0     67083766                       # Write bandwidth from this memory (bytes/s)
system.mem_ctrls0.bw_write::total            67083766                       # Write bandwidth from this memory (bytes/s)
system.mem_ctrls0.bw_total::ruby.dir_cntrl0    301999069                       # Total bandwidth to/from this memory (bytes/s)
system.mem_ctrls0.bw_total::total           301999069                       # Total bandwidth to/from this memory (bytes/s)
system.mem_ctrls0.readReqs                     219291                       # Number of read requests accepted
system.mem_ctrls0.writeReqs                     62622                       # Number of write requests accepted
system.mem_ctrls0.readBursts                   219291                       # Number of DRAM read bursts, including those serviced by the write queue
system.mem_ctrls0.writeBursts                   62622                       # Number of DRAM write bursts, including those merged in the write queue
system.mem_ctrls0.bytesReadDRAM              14032896                       # Total number of bytes read from DRAM
system.mem_ctrls0.bytesReadWrQ                   1728                       # Total number of bytes read from write queue
system.mem_ctrls0.bytesWritten                4007680                       # Total number of bytes written to DRAM
system.mem_ctrls0.bytesReadSys               14034624                       # Total read bytes from the system interface side
system.mem_ctrls0.bytesWrittenSys             4007808                       # Total written bytes from the system interface side
system.mem_ctrls0.servicedByWrQ                    27                       # Number of DRAM read bursts serviced by the write queue
system.mem_ctrls0.mergedWrBursts                    0                       # Number of DRAM write bursts merged with an existing one
system.mem_ctrls0.neitherReadNorWriteReqs            0                       # Number of requests that are neither read nor write
system.mem_ctrls0.perBankRdBursts::0            13461                       # Per bank write bursts
system.mem_ctrls0.perBankRdBursts::1            13998                       # Per bank write bursts
system.mem_ctrls0.perBankRdBursts::2            13664                       # Per bank write bursts
system.mem_ctrls0.perBankRdBursts::3            14063                       # Per bank write bursts
system.mem_ctrls0.perBankRdBursts::4            13702                       # Per bank write bursts
system.mem_ctrls0.perBankRdBursts::5            14280                       # Per bank write bursts
system.mem_ctrls0.perBankRdBursts::6            13743                       # Per bank write bursts
system.mem_ctrls0.perBankRdBursts::7            13672                       # Per bank write bursts
system.mem_ctrls0.perBankRdBursts::8            13562                       # Per bank write bursts
system.mem_ctrls0.perBankRdBursts::9            13898                       # Per bank write bursts
system.mem_ctrls0.perBankRdBursts::10           13605                       # Per bank write bursts
system.mem_ctrls0.perBankRdBursts::11           13835                       # Per bank write bursts
system.mem_ctrls0.perBankRdBursts::12           13385                       # Per bank write bursts
system.mem_ctrls0.perBankRdBursts::13           13266                       # Per bank write bursts
system.mem_ctrls0.perBankRdBursts::14           13559                       # Per bank write bursts
system.mem_ctrls0.perBankRdBursts::15           13571                       # Per bank write bursts
system.mem_ctrls0.perBankWrBursts::0             3845                       # Per bank write bursts
system.mem_ctrls0.perBankWrBursts::1             3927                       # Per bank write bursts
system.mem_ctrls0.perBankWrBursts::2             3906                       # Per bank write bursts
system.mem_ctrls0.perBankWrBursts::3             4132                       # Per bank write bursts
system.mem_ctrls0.perBankWrBursts::4             3927                       # Per bank write bursts
system.mem_ctrls0.perBankWrBursts::5             4077                       # Per bank write bursts
system.mem_ctrls0.perBankWrBursts::6             3983                       # Per bank write bursts
system.mem_ctrls0.perBankWrBursts::7             3947                       # Per bank write bursts
system.mem_ctrls0.perBankWrBursts::8             3818                       # Per bank write bursts
system.mem_ctrls0.perBankWrBursts::9             4072                       # Per bank write bursts
system.mem_ctrls0.perBankWrBursts::10            3841                       # Per bank write bursts
system.mem_ctrls0.perBankWrBursts::11            3777                       # Per bank write bursts
system.mem_ctrls0.perBankWrBursts::12            3724                       # Per bank write bursts
system.mem_ctrls0.perBankWrBursts::13            3762                       # Per bank write bursts
system.mem_ctrls0.perBankWrBursts::14            4009                       # Per bank write bursts
system.mem_ctrls0.perBankWrBursts::15            3873                       # Per bank write bursts
system.mem_ctrls0.numRdRetry                      887                       # Number of times read queue was full causing retry
system.mem_ctrls0.numWrRetry                      407                       # Number of times write queue was full causing retry
system.mem_ctrls0.totGap                  59742844500                       # Total gap between requests
system.mem_ctrls0.readPktSize::0                    0                       # Read request sizes (log2)
system.mem_ctrls0.readPktSize::1                    0                       # Read request sizes (log2)
system.mem_ctrls0.readPktSize::2                    0                       # Read request sizes (log2)
system.mem_ctrls0.readPktSize::3                    0                       # Read request sizes (log2)
system.mem_ctrls0.readPktSize::4                    0                       # Read request sizes (log2)
system.mem_ctrls0.readPktSize::5                    0                       # Read request sizes (log2)
system.mem_ctrls0.readPktSize::6               219291                       # Read request sizes (log2)
system.mem_ctrls0.writePktSize::0                   0                       # Write request sizes (log2)
system.mem_ctrls0.writePktSize::1                   0                       # Write request sizes (log2)
system.mem_ctrls0.writePktSize::2                   0                       # Write request sizes (log2)
system.mem_ctrls0.writePktSize::3                   0                       # Write request sizes (log2)
system.mem_ctrls0.writePktSize::4                   0                       # Write request sizes (log2)
system.mem_ctrls0.writePktSize::5                   0                       # Write request sizes (log2)
system.mem_ctrls0.writePktSize::6               62622                       # Write request sizes (log2)
system.mem_ctrls0.rdQLenPdf::0                 161102                       # What read queue length does an incoming req see
system.mem_ctrls0.rdQLenPdf::1                  42270                       # What read queue length does an incoming req see
system.mem_ctrls0.rdQLenPdf::2                  11022                       # What read queue length does an incoming req see
system.mem_ctrls0.rdQLenPdf::3                   2436                       # What read queue length does an incoming req see
system.mem_ctrls0.rdQLenPdf::4                    574                       # What read queue length does an incoming req see
system.mem_ctrls0.rdQLenPdf::5                    190                       # What read queue length does an incoming req see
system.mem_ctrls0.rdQLenPdf::6                     97                       # What read queue length does an incoming req see
system.mem_ctrls0.rdQLenPdf::7                     91                       # What read queue length does an incoming req see
system.mem_ctrls0.rdQLenPdf::8                     61                       # What read queue length does an incoming req see
system.mem_ctrls0.rdQLenPdf::9                     52                       # What read queue length does an incoming req see
system.mem_ctrls0.rdQLenPdf::10                    41                       # What read queue length does an incoming req see
system.mem_ctrls0.rdQLenPdf::11                    41                       # What read queue length does an incoming req see
system.mem_ctrls0.rdQLenPdf::12                    33                       # What read queue length does an incoming req see
system.mem_ctrls0.rdQLenPdf::13                    28                       # What read queue length does an incoming req see
system.mem_ctrls0.rdQLenPdf::14                    31                       # What read queue length does an incoming req see
system.mem_ctrls0.rdQLenPdf::15                    17                       # What read queue length does an incoming req see
system.mem_ctrls0.rdQLenPdf::16                    16                       # What read queue length does an incoming req see
system.mem_ctrls0.rdQLenPdf::17                    14                       # What read queue length does an incoming req see
system.mem_ctrls0.rdQLenPdf::18                    16                       # What read queue length does an incoming req see
system.mem_ctrls0.rdQLenPdf::19                    14                       # What read queue length does an incoming req see
system.mem_ctrls0.rdQLenPdf::20                     8                       # What read queue length does an incoming req see
system.mem_ctrls0.rdQLenPdf::21                     8                       # What read queue length does an incoming req see
system.mem_ctrls0.rdQLenPdf::22                    10                       # What read queue length does an incoming req see
system.mem_ctrls0.rdQLenPdf::23                     9                       # What read queue length does an incoming req see
system.mem_ctrls0.rdQLenPdf::24                    10                       # What read queue length does an incoming req see
system.mem_ctrls0.rdQLenPdf::25                     8                       # What read queue length does an incoming req see
system.mem_ctrls0.rdQLenPdf::26                     8                       # What read queue length does an incoming req see
system.mem_ctrls0.rdQLenPdf::27                    12                       # What read queue length does an incoming req see
system.mem_ctrls0.rdQLenPdf::28                     9                       # What read queue length does an incoming req see
system.mem_ctrls0.rdQLenPdf::29                    11                       # What read queue length does an incoming req see
system.mem_ctrls0.rdQLenPdf::30                    19                       # What read queue length does an incoming req see
system.mem_ctrls0.rdQLenPdf::31                  1006                       # What read queue length does an incoming req see
system.mem_ctrls0.wrQLenPdf::0                  12187                       # What write queue length does an incoming req see
system.mem_ctrls0.wrQLenPdf::1                  12373                       # What write queue length does an incoming req see
system.mem_ctrls0.wrQLenPdf::2                  12357                       # What write queue length does an incoming req see
system.mem_ctrls0.wrQLenPdf::3                  12332                       # What write queue length does an incoming req see
system.mem_ctrls0.wrQLenPdf::4                  12302                       # What write queue length does an incoming req see
system.mem_ctrls0.wrQLenPdf::5                    240                       # What write queue length does an incoming req see
system.mem_ctrls0.wrQLenPdf::6                    181                       # What write queue length does an incoming req see
system.mem_ctrls0.wrQLenPdf::7                    650                       # What write queue length does an incoming req see
system.mem_ctrls0.bytesPerActivate::samples        84898                       # Bytes accessed per row activation
system.mem_ctrls0.bytesPerActivate::mean   212.487267                       # Bytes accessed per row activation
system.mem_ctrls0.bytesPerActivate::gmean   136.925448                       # Bytes accessed per row activation
system.mem_ctrls0.bytesPerActivate::stdev   240.222155                       # Bytes accessed per row activation
system.mem_ctrls0.bytesPerActivate::0-127        40777     48.03%     48.03% # Bytes accessed per row activation
system.mem_ctrls0.bytesPerActivate::128-255        17868     21.05%     69.08% # Bytes accessed per row activation
system.mem_ctrls0.bytesPerActivate::256-383        14819     17.46%     86.53% # Bytes accessed per row activation
system.mem_ctrls0.bytesPerActivate::384-511         2654      3.13%     89.66% # Bytes accessed per row activation
system.mem_ctrls0.bytesPerActivate::512-639         1904      2.24%     91.90% # Bytes accessed per row activation
system.mem_ctrls0.bytesPerActivate::640-767         1289      1.52%     93.42% # Bytes accessed per row activation
system.mem_ctrls0.bytesPerActivate::768-895         1039      1.22%     94.64% # Bytes accessed per row activation
system.mem_ctrls0.bytesPerActivate::896-1023          945      1.11%     95.76% # Bytes accessed per row activation
system.mem_ctrls0.bytesPerActivate::1024-1151         3603      4.24%    100.00% # Bytes accessed per row activation
system.mem_ctrls0.bytesPerActivate::total        84898                       # Bytes accessed per row activation
system.mem_ctrls0.rdPerTurnAround::samples        12229                       # Reads before turning the bus around for writes
system.mem_ctrls0.rdPerTurnAround::mean     17.772672                       # Reads before turning the bus around for writes
system.mem_ctrls0.rdPerTurnAround::stdev    74.104316                       # Reads before turning the bus around for writes
system.mem_ctrls0.rdPerTurnAround::0-127        11855     96.94%     96.94% # Reads before turning the bus around for writes
system.mem_ctrls0.rdPerTurnAround::128-255          198      1.62%     98.56% # Reads before turning the bus around for writes
system.mem_ctrls0.rdPerTurnAround::256-383           79      0.65%     99.21% # Reads before turning the bus around for writes
system.mem_ctrls0.rdPerTurnAround::384-511           50      0.41%     99.62% # Reads before turning the bus around for writes
system.mem_ctrls0.rdPerTurnAround::512-639           25      0.20%     99.82% # Reads before turning the bus around for writes
system.mem_ctrls0.rdPerTurnAround::640-767            8      0.07%     99.89% # Reads before turning the bus around for writes
system.mem_ctrls0.rdPerTurnAround::768-895            3      0.02%     99.91% # Reads before turning the bus around for writes
system.mem_ctrls0.rdPerTurnAround::896-1023            4      0.03%     99.94% # Reads before turning the bus around for writes
system.mem_ctrls0.rdPerTurnAround::1024-1151            2      0.02%     99.96% # Reads before turning the bus around for writes
system.mem_ctrls0.rdPerTurnAround::1152-1279            1      0.01%     99.97% # Reads before turning the bus around for writes
system.mem_ctrls0.rdPerTurnAround::1280-1407            2      0.02%     99.98% # Reads before turning the bus around for writes
system.mem_ctrls0.rdPerTurnAround::1408-1535            1      0.01%     99.99% # Reads before turning the bus around for writes
system.mem_ctrls0.rdPerTurnAround::3968-4095            1      0.01%    100.00% # Reads before turning the bus around for writes
system.mem_ctrls0.rdPerTurnAround::total        12229                       # Reads before turning the bus around for writes
system.mem_ctrls0.wrPerTurnAround::samples        12229                       # Writes before turning the bus around for reads
system.mem_ctrls0.wrPerTurnAround::mean      5.120615                       # Writes before turning the bus around for reads
system.mem_ctrls0.wrPerTurnAround::gmean     5.081170                       # Writes before turning the bus around for reads
system.mem_ctrls0.wrPerTurnAround::stdev     0.914352                       # Writes before turning the bus around for reads
system.mem_ctrls0.wrPerTurnAround::4-7          12104     98.98%     98.98% # Writes before turning the bus around for reads
system.mem_ctrls0.wrPerTurnAround::8-11            42      0.34%     99.32% # Writes before turning the bus around for reads
system.mem_ctrls0.wrPerTurnAround::12-15           18      0.15%     99.47% # Writes before turning the bus around for reads
system.mem_ctrls0.wrPerTurnAround::16-19           65      0.53%    100.00% # Writes before turning the bus around for reads
system.mem_ctrls0.wrPerTurnAround::total        12229                       # Writes before turning the bus around for reads
system.mem_ctrls0.totQLat                  3061997251                       # Total ticks spent queuing
system.mem_ctrls0.totMemAccLat             7173197251                       # Total ticks spent from burst creation until serviced by the DRAM
system.mem_ctrls0.totBusLat                1096320000                       # Total ticks spent in databus transfers
system.mem_ctrls0.avgQLat                    13964.89                       # Average queueing delay per DRAM burst
system.mem_ctrls0.avgBusLat                   5000.00                       # Average bus latency per DRAM burst
system.mem_ctrls0.avgMemAccLat               32714.89                       # Average memory access latency per DRAM burst
system.mem_ctrls0.avgRdBW                      234.89                       # Average DRAM read bandwidth in MiByte/s
system.mem_ctrls0.avgWrBW                       67.08                       # Average achieved write bandwidth in MiByte/s
system.mem_ctrls0.avgRdBWSys                   234.92                       # Average system read bandwidth in MiByte/s
system.mem_ctrls0.avgWrBWSys                    67.08                       # Average system write bandwidth in MiByte/s
system.mem_ctrls0.peakBW                     12800.00                       # Theoretical peak bandwidth in MiByte/s
system.mem_ctrls0.busUtil                        2.36                       # Data bus utilization in percentage
system.mem_ctrls0.busUtilRead                    1.84                       # Data bus utilization in percentage for reads
system.mem_ctrls0.busUtilWrite                   0.52                       # Data bus utilization in percentage for writes
system.mem_ctrls0.avgRdQLen                      1.12                       # Average read queue length when enqueuing
system.mem_ctrls0.avgWrQLen                      2.86                       # Average write queue length when enqueuing
system.mem_ctrls0.readRowHits                  158418                       # Number of row buffer hits during reads
system.mem_ctrls0.writeRowHits                  38560                       # Number of row buffer hits during writes
system.mem_ctrls0.readRowHitRate                72.25                       # Row buffer hit rate for reads
system.mem_ctrls0.writeRowHitRate               61.58                       # Row buffer hit rate for writes
system.mem_ctrls0.avgGap                    211919.44                       # Average gap between requests
system.mem_ctrls0.pageHitRate                   69.88                       # Row buffer hit rate, read and write combined
system.mem_ctrls0.memoryStateTime::IDLE   10794019000                       # Time in different power states
system.mem_ctrls0.memoryStateTime::REF     1994720000                       # Time in different power states
system.mem_ctrls0.memoryStateTime::PRE_PDN            0                       # Time in different power states
system.mem_ctrls0.memoryStateTime::ACT    46947644750                       # Time in different power states
system.mem_ctrls0.memoryStateTime::ACT_PDN            0                       # Time in different power states
system.mem_ctrls0.actEnergy::0              325253880                       # Energy for activate commands per rank (pJ)
system.mem_ctrls0.actEnergy::1              316537200                       # Energy for activate commands per rank (pJ)
system.mem_ctrls0.preEnergy::0              177469875                       # Energy for precharge commands per rank (pJ)
system.mem_ctrls0.preEnergy::1              172713750                       # Energy for precharge commands per rank (pJ)
system.mem_ctrls0.readEnergy::0             862446000                       # Energy for read commands per rank (pJ)
system.mem_ctrls0.readEnergy::1             847665000                       # Energy for read commands per rank (pJ)
system.mem_ctrls0.writeEnergy::0            205701120                       # Energy for write commands per rank (pJ)
system.mem_ctrls0.writeEnergy::1            200076480                       # Energy for write commands per rank (pJ)
system.mem_ctrls0.refreshEnergy::0         3901672320                       # Energy for refresh commands per rank (pJ)
system.mem_ctrls0.refreshEnergy::1         3901672320                       # Energy for refresh commands per rank (pJ)
system.mem_ctrls0.actBackEnergy::0        25608555585                       # Energy for active background per rank (pJ)
system.mem_ctrls0.actBackEnergy::1        24933921255                       # Energy for active background per rank (pJ)
system.mem_ctrls0.preBackEnergy::0        13378176750                       # Energy for precharge background per rank (pJ)
system.mem_ctrls0.preBackEnergy::1        13969961250                       # Energy for precharge background per rank (pJ)
system.mem_ctrls0.totalEnergy::0          44459275530                       # Total energy per rank (pJ)
system.mem_ctrls0.totalEnergy::1          44342547255                       # Total energy per rank (pJ)
system.mem_ctrls0.averagePower::0          744.258071                       # Core power per rank (mW)
system.mem_ctrls0.averagePower::1          742.304014                       # Core power per rank (mW)
system.mem_ctrls1.bytes_read::ruby.dir_cntrl1     13851200                       # Number of bytes read from this memory
system.mem_ctrls1.bytes_read::total          13851200                       # Number of bytes read from this memory
system.mem_ctrls1.bytes_written::ruby.dir_cntrl1      3840704                       # Number of bytes written to this memory
system.mem_ctrls1.bytes_written::total        3840704                       # Number of bytes written to this memory
system.mem_ctrls1.num_reads::ruby.dir_cntrl1       216425                       # Number of read requests responded to by this memory
system.mem_ctrls1.num_reads::total             216425                       # Number of read requests responded to by this memory
system.mem_ctrls1.num_writes::ruby.dir_cntrl1        60011                       # Number of write requests responded to by this memory
system.mem_ctrls1.num_writes::total             60011                       # Number of write requests responded to by this memory
system.mem_ctrls1.bw_read::ruby.dir_cntrl1    231845103                       # Total read bandwidth from this memory (bytes/s)
system.mem_ctrls1.bw_read::total            231845103                       # Total read bandwidth from this memory (bytes/s)
system.mem_ctrls1.bw_write::ruby.dir_cntrl1     64286734                       # Write bandwidth from this memory (bytes/s)
system.mem_ctrls1.bw_write::total            64286734                       # Write bandwidth from this memory (bytes/s)
system.mem_ctrls1.bw_total::ruby.dir_cntrl1    296131837                       # Total bandwidth to/from this memory (bytes/s)
system.mem_ctrls1.bw_total::total           296131837                       # Total bandwidth to/from this memory (bytes/s)
system.mem_ctrls1.readReqs                     216425                       # Number of read requests accepted
system.mem_ctrls1.writeReqs                     60011                       # Number of write requests accepted
system.mem_ctrls1.readBursts                   216425                       # Number of DRAM read bursts, including those serviced by the write queue
system.mem_ctrls1.writeBursts                   60011                       # Number of DRAM write bursts, including those merged in the write queue
system.mem_ctrls1.bytesReadDRAM              13849664                       # Total number of bytes read from DRAM
system.mem_ctrls1.bytesReadWrQ                   1536                       # Total number of bytes read from write queue
system.mem_ctrls1.bytesWritten                3840512                       # Total number of bytes written to DRAM
system.mem_ctrls1.bytesReadSys               13851200                       # Total read bytes from the system interface side
system.mem_ctrls1.bytesWrittenSys             3840704                       # Total written bytes from the system interface side
system.mem_ctrls1.servicedByWrQ                    24                       # Number of DRAM read bursts serviced by the write queue
system.mem_ctrls1.mergedWrBursts                    0                       # Number of DRAM write bursts merged with an existing one
system.mem_ctrls1.neitherReadNorWriteReqs            0                       # Number of requests that are neither read nor write
system.mem_ctrls1.perBankRdBursts::0            13290                       # Per bank write bursts
system.mem_ctrls1.perBankRdBursts::1            13819                       # Per bank write bursts
system.mem_ctrls1.perBankRdBursts::2            13485                       # Per bank write bursts
system.mem_ctrls1.perBankRdBursts::3            13893                       # Per bank write bursts
system.mem_ctrls1.perBankRdBursts::4            13534                       # Per bank write bursts
system.mem_ctrls1.perBankRdBursts::5            14119                       # Per bank write bursts
system.mem_ctrls1.perBankRdBursts::6            13535                       # Per bank write bursts
system.mem_ctrls1.perBankRdBursts::7            13509                       # Per bank write bursts
system.mem_ctrls1.perBankRdBursts::8            13401                       # Per bank write bursts
system.mem_ctrls1.perBankRdBursts::9            13712                       # Per bank write bursts
system.mem_ctrls1.perBankRdBursts::10           13419                       # Per bank write bursts
system.mem_ctrls1.perBankRdBursts::11           13655                       # Per bank write bursts
system.mem_ctrls1.perBankRdBursts::12           13210                       # Per bank write bursts
system.mem_ctrls1.perBankRdBursts::13           13105                       # Per bank write bursts
system.mem_ctrls1.perBankRdBursts::14           13294                       # Per bank write bursts
system.mem_ctrls1.perBankRdBursts::15           13421                       # Per bank write bursts
system.mem_ctrls1.perBankWrBursts::0             3686                       # Per bank write bursts
system.mem_ctrls1.perBankWrBursts::1             3780                       # Per bank write bursts
system.mem_ctrls1.perBankWrBursts::2             3765                       # Per bank write bursts
system.mem_ctrls1.perBankWrBursts::3             3979                       # Per bank write bursts
system.mem_ctrls1.perBankWrBursts::4             3771                       # Per bank write bursts
system.mem_ctrls1.perBankWrBursts::5             3924                       # Per bank write bursts
system.mem_ctrls1.perBankWrBursts::6             3803                       # Per bank write bursts
system.mem_ctrls1.perBankWrBursts::7             3779                       # Per bank write bursts
system.mem_ctrls1.perBankWrBursts::8             3663                       # Per bank write bursts
system.mem_ctrls1.perBankWrBursts::9             3898                       # Per bank write bursts
system.mem_ctrls1.perBankWrBursts::10            3678                       # Per bank write bursts
system.mem_ctrls1.perBankWrBursts::11            3611                       # Per bank write bursts
system.mem_ctrls1.perBankWrBursts::12            3566                       # Per bank write bursts
system.mem_ctrls1.perBankWrBursts::13            3595                       # Per bank write bursts
system.mem_ctrls1.perBankWrBursts::14            3794                       # Per bank write bursts
system.mem_ctrls1.perBankWrBursts::15            3716                       # Per bank write bursts
system.mem_ctrls1.numRdRetry                      446                       # Number of times read queue was full causing retry
system.mem_ctrls1.numWrRetry                      287                       # Number of times write queue was full causing retry
system.mem_ctrls1.totGap                  59742586000                       # Total gap between requests
system.mem_ctrls1.readPktSize::0                    0                       # Read request sizes (log2)
system.mem_ctrls1.readPktSize::1                    0                       # Read request sizes (log2)
system.mem_ctrls1.readPktSize::2                    0                       # Read request sizes (log2)
system.mem_ctrls1.readPktSize::3                    0                       # Read request sizes (log2)
system.mem_ctrls1.readPktSize::4                    0                       # Read request sizes (log2)
system.mem_ctrls1.readPktSize::5                    0                       # Read request sizes (log2)
system.mem_ctrls1.readPktSize::6               216425                       # Read request sizes (log2)
system.mem_ctrls1.writePktSize::0                   0                       # Write request sizes (log2)
system.mem_ctrls1.writePktSize::1                   0                       # Write request sizes (log2)
system.mem_ctrls1.writePktSize::2                   0                       # Write request sizes (log2)
system.mem_ctrls1.writePktSize::3                   0                       # Write request sizes (log2)
system.mem_ctrls1.writePktSize::4                   0                       # Write request sizes (log2)
system.mem_ctrls1.writePktSize::5                   0                       # Write request sizes (log2)
system.mem_ctrls1.writePktSize::6               60011                       # Write request sizes (log2)
system.mem_ctrls1.rdQLenPdf::0                 158715                       # What read queue length does an incoming req see
system.mem_ctrls1.rdQLenPdf::1                  42804                       # What read queue length does an incoming req see
system.mem_ctrls1.rdQLenPdf::2                  10573                       # What read queue length does an incoming req see
system.mem_ctrls1.rdQLenPdf::3                   2182                       # What read queue length does an incoming req see
system.mem_ctrls1.rdQLenPdf::4                    493                       # What read queue length does an incoming req see
system.mem_ctrls1.rdQLenPdf::5                    188                       # What read queue length does an incoming req see
system.mem_ctrls1.rdQLenPdf::6                    124                       # What read queue length does an incoming req see
system.mem_ctrls1.rdQLenPdf::7                    117                       # What read queue length does an incoming req see
system.mem_ctrls1.rdQLenPdf::8                     97                       # What read queue length does an incoming req see
system.mem_ctrls1.rdQLenPdf::9                     95                       # What read queue length does an incoming req see
system.mem_ctrls1.rdQLenPdf::10                    68                       # What read queue length does an incoming req see
system.mem_ctrls1.rdQLenPdf::11                    61                       # What read queue length does an incoming req see
system.mem_ctrls1.rdQLenPdf::12                    50                       # What read queue length does an incoming req see
system.mem_ctrls1.rdQLenPdf::13                    37                       # What read queue length does an incoming req see
system.mem_ctrls1.rdQLenPdf::14                    46                       # What read queue length does an incoming req see
system.mem_ctrls1.rdQLenPdf::15                    42                       # What read queue length does an incoming req see
system.mem_ctrls1.rdQLenPdf::16                    26                       # What read queue length does an incoming req see
system.mem_ctrls1.rdQLenPdf::17                    24                       # What read queue length does an incoming req see
system.mem_ctrls1.rdQLenPdf::18                    18                       # What read queue length does an incoming req see
system.mem_ctrls1.rdQLenPdf::19                    15                       # What read queue length does an incoming req see
system.mem_ctrls1.rdQLenPdf::20                    11                       # What read queue length does an incoming req see
system.mem_ctrls1.rdQLenPdf::21                    13                       # What read queue length does an incoming req see
system.mem_ctrls1.rdQLenPdf::22                    11                       # What read queue length does an incoming req see
system.mem_ctrls1.rdQLenPdf::23                    11                       # What read queue length does an incoming req see
system.mem_ctrls1.rdQLenPdf::24                    13                       # What read queue length does an incoming req see
system.mem_ctrls1.rdQLenPdf::25                    14                       # What read queue length does an incoming req see
system.mem_ctrls1.rdQLenPdf::26                    11                       # What read queue length does an incoming req see
system.mem_ctrls1.rdQLenPdf::27                     9                       # What read queue length does an incoming req see
system.mem_ctrls1.rdQLenPdf::28                    15                       # What read queue length does an incoming req see
system.mem_ctrls1.rdQLenPdf::29                    10                       # What read queue length does an incoming req see
system.mem_ctrls1.rdQLenPdf::30                    25                       # What read queue length does an incoming req see
system.mem_ctrls1.rdQLenPdf::31                   483                       # What read queue length does an incoming req see
system.mem_ctrls1.wrQLenPdf::0                  11682                       # What write queue length does an incoming req see
system.mem_ctrls1.wrQLenPdf::1                  11889                       # What write queue length does an incoming req see
system.mem_ctrls1.wrQLenPdf::2                  11865                       # What write queue length does an incoming req see
system.mem_ctrls1.wrQLenPdf::3                  11835                       # What write queue length does an incoming req see
system.mem_ctrls1.wrQLenPdf::4                  11835                       # What write queue length does an incoming req see
system.mem_ctrls1.wrQLenPdf::5                    271                       # What write queue length does an incoming req see
system.mem_ctrls1.wrQLenPdf::6                    181                       # What write queue length does an incoming req see
system.mem_ctrls1.wrQLenPdf::7                    453                       # What write queue length does an incoming req see
system.mem_ctrls1.bytesPerActivate::samples        80428                       # Bytes accessed per row activation
system.mem_ctrls1.bytesPerActivate::mean   219.936142                       # Bytes accessed per row activation
system.mem_ctrls1.bytesPerActivate::gmean   140.940622                       # Bytes accessed per row activation
system.mem_ctrls1.bytesPerActivate::stdev   246.534261                       # Bytes accessed per row activation
system.mem_ctrls1.bytesPerActivate::0-127        37362     46.45%     46.45% # Bytes accessed per row activation
system.mem_ctrls1.bytesPerActivate::128-255        17135     21.30%     67.76% # Bytes accessed per row activation
system.mem_ctrls1.bytesPerActivate::256-383        14430     17.94%     85.70% # Bytes accessed per row activation
system.mem_ctrls1.bytesPerActivate::384-511         2585      3.21%     88.91% # Bytes accessed per row activation
system.mem_ctrls1.bytesPerActivate::512-639         1925      2.39%     91.31% # Bytes accessed per row activation
system.mem_ctrls1.bytesPerActivate::640-767         1287      1.60%     92.91% # Bytes accessed per row activation
system.mem_ctrls1.bytesPerActivate::768-895         1036      1.29%     94.20% # Bytes accessed per row activation
system.mem_ctrls1.bytesPerActivate::896-1023         1033      1.28%     95.48% # Bytes accessed per row activation
system.mem_ctrls1.bytesPerActivate::1024-1151         3635      4.52%    100.00% # Bytes accessed per row activation
system.mem_ctrls1.bytesPerActivate::total        80428                       # Bytes accessed per row activation
system.mem_ctrls1.rdPerTurnAround::samples        11714                       # Reads before turning the bus around for writes
system.mem_ctrls1.rdPerTurnAround::mean     18.309630                       # Reads before turning the bus around for writes
system.mem_ctrls1.rdPerTurnAround::stdev    76.335700                       # Reads before turning the bus around for writes
system.mem_ctrls1.rdPerTurnAround::0-127        11355     96.94%     96.94% # Reads before turning the bus around for writes
system.mem_ctrls1.rdPerTurnAround::128-255          179      1.53%     98.46% # Reads before turning the bus around for writes
system.mem_ctrls1.rdPerTurnAround::256-383           73      0.62%     99.09% # Reads before turning the bus around for writes
system.mem_ctrls1.rdPerTurnAround::384-511           55      0.47%     99.56% # Reads before turning the bus around for writes
system.mem_ctrls1.rdPerTurnAround::512-639           27      0.23%     99.79% # Reads before turning the bus around for writes
system.mem_ctrls1.rdPerTurnAround::640-767           11      0.09%     99.88% # Reads before turning the bus around for writes
system.mem_ctrls1.rdPerTurnAround::768-895            3      0.03%     99.91% # Reads before turning the bus around for writes
system.mem_ctrls1.rdPerTurnAround::896-1023            3      0.03%     99.93% # Reads before turning the bus around for writes
system.mem_ctrls1.rdPerTurnAround::1152-1279            1      0.01%     99.94% # Reads before turning the bus around for writes
system.mem_ctrls1.rdPerTurnAround::1408-1535            1      0.01%     99.95% # Reads before turning the bus around for writes
system.mem_ctrls1.rdPerTurnAround::1536-1663            2      0.02%     99.97% # Reads before turning the bus around for writes
system.mem_ctrls1.rdPerTurnAround::1664-1791            2      0.02%     99.98% # Reads before turning the bus around for writes
system.mem_ctrls1.rdPerTurnAround::1792-1919            1      0.01%     99.99% # Reads before turning the bus around for writes
system.mem_ctrls1.rdPerTurnAround::2816-2943            1      0.01%    100.00% # Reads before turning the bus around for writes
system.mem_ctrls1.rdPerTurnAround::total        11714                       # Reads before turning the bus around for writes
system.mem_ctrls1.wrPerTurnAround::samples        11714                       # Writes before turning the bus around for reads
system.mem_ctrls1.wrPerTurnAround::mean      5.122759                       # Writes before turning the bus around for reads
system.mem_ctrls1.wrPerTurnAround::gmean     5.085970                       # Writes before turning the bus around for reads
system.mem_ctrls1.wrPerTurnAround::stdev     0.864087                       # Writes before turning the bus around for reads
system.mem_ctrls1.wrPerTurnAround::4-7          11583     98.88%     98.88% # Writes before turning the bus around for reads
system.mem_ctrls1.wrPerTurnAround::8-11            62      0.53%     99.41% # Writes before turning the bus around for reads
system.mem_ctrls1.wrPerTurnAround::12-15           22      0.19%     99.60% # Writes before turning the bus around for reads
system.mem_ctrls1.wrPerTurnAround::16-19           47      0.40%    100.00% # Writes before turning the bus around for reads
system.mem_ctrls1.wrPerTurnAround::total        11714                       # Writes before turning the bus around for reads
system.mem_ctrls1.totQLat                  2800395813                       # Total ticks spent queuing
system.mem_ctrls1.totMemAccLat             6857914563                       # Total ticks spent from burst creation until serviced by the DRAM
system.mem_ctrls1.totBusLat                1082005000                       # Total ticks spent in databus transfers
system.mem_ctrls1.avgQLat                    12940.77                       # Average queueing delay per DRAM burst
system.mem_ctrls1.avgBusLat                   5000.00                       # Average bus latency per DRAM burst
system.mem_ctrls1.avgMemAccLat               31690.77                       # Average memory access latency per DRAM burst
system.mem_ctrls1.avgRdBW                      231.82                       # Average DRAM read bandwidth in MiByte/s
system.mem_ctrls1.avgWrBW                       64.28                       # Average achieved write bandwidth in MiByte/s
system.mem_ctrls1.avgRdBWSys                   231.85                       # Average system read bandwidth in MiByte/s
system.mem_ctrls1.avgWrBWSys                    64.29                       # Average system write bandwidth in MiByte/s
system.mem_ctrls1.peakBW                     12800.00                       # Theoretical peak bandwidth in MiByte/s
system.mem_ctrls1.busUtil                        2.31                       # Data bus utilization in percentage
system.mem_ctrls1.busUtilRead                    1.81                       # Data bus utilization in percentage for reads
system.mem_ctrls1.busUtilWrite                   0.50                       # Data bus utilization in percentage for writes
system.mem_ctrls1.avgRdQLen                      1.10                       # Average read queue length when enqueuing
system.mem_ctrls1.avgWrQLen                      2.93                       # Average write queue length when enqueuing
system.mem_ctrls1.readRowHits                  157024                       # Number of row buffer hits during reads
system.mem_ctrls1.writeRowHits                  38949                       # Number of row buffer hits during writes
system.mem_ctrls1.readRowHitRate                72.56                       # Row buffer hit rate for reads
system.mem_ctrls1.writeRowHitRate               64.90                       # Row buffer hit rate for writes
system.mem_ctrls1.avgGap                    216117.24                       # Average gap between requests
system.mem_ctrls1.pageHitRate                   70.90                       # Row buffer hit rate, read and write combined
system.mem_ctrls1.memoryStateTime::IDLE   11222905250                       # Time in different power states
system.mem_ctrls1.memoryStateTime::REF     1994720000                       # Time in different power states
system.mem_ctrls1.memoryStateTime::PRE_PDN            0                       # Time in different power states
system.mem_ctrls1.memoryStateTime::ACT    46518871750                       # Time in different power states
system.mem_ctrls1.memoryStateTime::ACT_PDN            0                       # Time in different power states
system.mem_ctrls1.actEnergy::0              309355200                       # Energy for activate commands per rank (pJ)
system.mem_ctrls1.actEnergy::1              298672920                       # Energy for activate commands per rank (pJ)
system.mem_ctrls1.preEnergy::0              168795000                       # Energy for precharge commands per rank (pJ)
system.mem_ctrls1.preEnergy::1              162966375                       # Energy for precharge commands per rank (pJ)
system.mem_ctrls1.readEnergy::0             851526000                       # Energy for read commands per rank (pJ)
system.mem_ctrls1.readEnergy::1             836253600                       # Energy for read commands per rank (pJ)
system.mem_ctrls1.writeEnergy::0            197555760                       # Energy for write commands per rank (pJ)
system.mem_ctrls1.writeEnergy::1            191296080                       # Energy for write commands per rank (pJ)
system.mem_ctrls1.refreshEnergy::0         3901672320                       # Energy for refresh commands per rank (pJ)
system.mem_ctrls1.refreshEnergy::1         3901672320                       # Energy for refresh commands per rank (pJ)
system.mem_ctrls1.actBackEnergy::0        25307770005                       # Energy for active background per rank (pJ)
system.mem_ctrls1.actBackEnergy::1        24354599760                       # Energy for active background per rank (pJ)
system.mem_ctrls1.preBackEnergy::0        13642023750                       # Energy for precharge background per rank (pJ)
system.mem_ctrls1.preBackEnergy::1        14478138000                       # Energy for precharge background per rank (pJ)
system.mem_ctrls1.totalEnergy::0          44378698035                       # Total energy per rank (pJ)
system.mem_ctrls1.totalEnergy::1          44223599055                       # Total energy per rank (pJ)
system.mem_ctrls1.averagePower::0          742.909186                       # Core power per rank (mW)
system.mem_ctrls1.averagePower::1          740.312795                       # Core power per rank (mW)
system.mem_ctrls2.bytes_read::ruby.dir_cntrl2     13851904                       # Number of bytes read from this memory
system.mem_ctrls2.bytes_read::total          13851904                       # Number of bytes read from this memory
system.mem_ctrls2.bytes_written::ruby.dir_cntrl2      3841920                       # Number of bytes written to this memory
system.mem_ctrls2.bytes_written::total        3841920                       # Number of bytes written to this memory
system.mem_ctrls2.num_reads::ruby.dir_cntrl2       216436                       # Number of read requests responded to by this memory
system.mem_ctrls2.num_reads::total             216436                       # Number of read requests responded to by this memory
system.mem_ctrls2.num_writes::ruby.dir_cntrl2        60030                       # Number of write requests responded to by this memory
system.mem_ctrls2.num_writes::total             60030                       # Number of write requests responded to by this memory
system.mem_ctrls2.bw_read::ruby.dir_cntrl2    231856887                       # Total read bandwidth from this memory (bytes/s)
system.mem_ctrls2.bw_read::total            231856887                       # Total read bandwidth from this memory (bytes/s)
system.mem_ctrls2.bw_write::ruby.dir_cntrl2     64307088                       # Write bandwidth from this memory (bytes/s)
system.mem_ctrls2.bw_write::total            64307088                       # Write bandwidth from this memory (bytes/s)
system.mem_ctrls2.bw_total::ruby.dir_cntrl2    296163975                       # Total bandwidth to/from this memory (bytes/s)
system.mem_ctrls2.bw_total::total           296163975                       # Total bandwidth to/from this memory (bytes/s)
system.mem_ctrls2.readReqs                     216436                       # Number of read requests accepted
system.mem_ctrls2.writeReqs                     60030                       # Number of write requests accepted
system.mem_ctrls2.readBursts                   216436                       # Number of DRAM read bursts, including those serviced by the write queue
system.mem_ctrls2.writeBursts                   60030                       # Number of DRAM write bursts, including those merged in the write queue
system.mem_ctrls2.bytesReadDRAM              13851136                       # Total number of bytes read from DRAM
system.mem_ctrls2.bytesReadWrQ                    768                       # Total number of bytes read from write queue
system.mem_ctrls2.bytesWritten                3841728                       # Total number of bytes written to DRAM
system.mem_ctrls2.bytesReadSys               13851904                       # Total read bytes from the system interface side
system.mem_ctrls2.bytesWrittenSys             3841920                       # Total written bytes from the system interface side
system.mem_ctrls2.servicedByWrQ                    12                       # Number of DRAM read bursts serviced by the write queue
system.mem_ctrls2.mergedWrBursts                    0                       # Number of DRAM write bursts merged with an existing one
system.mem_ctrls2.neitherReadNorWriteReqs            0                       # Number of requests that are neither read nor write
system.mem_ctrls2.perBankRdBursts::0            13292                       # Per bank write bursts
system.mem_ctrls2.perBankRdBursts::1            13832                       # Per bank write bursts
system.mem_ctrls2.perBankRdBursts::2            13508                       # Per bank write bursts
system.mem_ctrls2.perBankRdBursts::3            13918                       # Per bank write bursts
system.mem_ctrls2.perBankRdBursts::4            13546                       # Per bank write bursts
system.mem_ctrls2.perBankRdBursts::5            14108                       # Per bank write bursts
system.mem_ctrls2.perBankRdBursts::6            13494                       # Per bank write bursts
system.mem_ctrls2.perBankRdBursts::7            13500                       # Per bank write bursts
system.mem_ctrls2.perBankRdBursts::8            13395                       # Per bank write bursts
system.mem_ctrls2.perBankRdBursts::9            13711                       # Per bank write bursts
system.mem_ctrls2.perBankRdBursts::10           13426                       # Per bank write bursts
system.mem_ctrls2.perBankRdBursts::11           13701                       # Per bank write bursts
system.mem_ctrls2.perBankRdBursts::12           13205                       # Per bank write bursts
system.mem_ctrls2.perBankRdBursts::13           13068                       # Per bank write bursts
system.mem_ctrls2.perBankRdBursts::14           13299                       # Per bank write bursts
system.mem_ctrls2.perBankRdBursts::15           13421                       # Per bank write bursts
system.mem_ctrls2.perBankWrBursts::0             3680                       # Per bank write bursts
system.mem_ctrls2.perBankWrBursts::1             3777                       # Per bank write bursts
system.mem_ctrls2.perBankWrBursts::2             3762                       # Per bank write bursts
system.mem_ctrls2.perBankWrBursts::3             3992                       # Per bank write bursts
system.mem_ctrls2.perBankWrBursts::4             3770                       # Per bank write bursts
system.mem_ctrls2.perBankWrBursts::5             3914                       # Per bank write bursts
system.mem_ctrls2.perBankWrBursts::6             3812                       # Per bank write bursts
system.mem_ctrls2.perBankWrBursts::7             3786                       # Per bank write bursts
system.mem_ctrls2.perBankWrBursts::8             3665                       # Per bank write bursts
system.mem_ctrls2.perBankWrBursts::9             3906                       # Per bank write bursts
system.mem_ctrls2.perBankWrBursts::10            3673                       # Per bank write bursts
system.mem_ctrls2.perBankWrBursts::11            3608                       # Per bank write bursts
system.mem_ctrls2.perBankWrBursts::12            3575                       # Per bank write bursts
system.mem_ctrls2.perBankWrBursts::13            3589                       # Per bank write bursts
system.mem_ctrls2.perBankWrBursts::14            3799                       # Per bank write bursts
system.mem_ctrls2.perBankWrBursts::15            3719                       # Per bank write bursts
system.mem_ctrls2.numRdRetry                      448                       # Number of times read queue was full causing retry
system.mem_ctrls2.numWrRetry                      289                       # Number of times write queue was full causing retry
system.mem_ctrls2.totGap                  59742618500                       # Total gap between requests
system.mem_ctrls2.readPktSize::0                    0                       # Read request sizes (log2)
system.mem_ctrls2.readPktSize::1                    0                       # Read request sizes (log2)
system.mem_ctrls2.readPktSize::2                    0                       # Read request sizes (log2)
system.mem_ctrls2.readPktSize::3                    0                       # Read request sizes (log2)
system.mem_ctrls2.readPktSize::4                    0                       # Read request sizes (log2)
system.mem_ctrls2.readPktSize::5                    0                       # Read request sizes (log2)
system.mem_ctrls2.readPktSize::6               216436                       # Read request sizes (log2)
system.mem_ctrls2.writePktSize::0                   0                       # Write request sizes (log2)
system.mem_ctrls2.writePktSize::1                   0                       # Write request sizes (log2)
system.mem_ctrls2.writePktSize::2                   0                       # Write request sizes (log2)
system.mem_ctrls2.writePktSize::3                   0                       # Write request sizes (log2)
system.mem_ctrls2.writePktSize::4                   0                       # Write request sizes (log2)
system.mem_ctrls2.writePktSize::5                   0                       # Write request sizes (log2)
system.mem_ctrls2.writePktSize::6               60030                       # Write request sizes (log2)
system.mem_ctrls2.rdQLenPdf::0                 159160                       # What read queue length does an incoming req see
system.mem_ctrls2.rdQLenPdf::1                  42370                       # What read queue length does an incoming req see
system.mem_ctrls2.rdQLenPdf::2                  10512                       # What read queue length does an incoming req see
system.mem_ctrls2.rdQLenPdf::3                   2275                       # What read queue length does an incoming req see
system.mem_ctrls2.rdQLenPdf::4                    494                       # What read queue length does an incoming req see
system.mem_ctrls2.rdQLenPdf::5                    160                       # What read queue length does an incoming req see
system.mem_ctrls2.rdQLenPdf::6                    100                       # What read queue length does an incoming req see
system.mem_ctrls2.rdQLenPdf::7                     74                       # What read queue length does an incoming req see
system.mem_ctrls2.rdQLenPdf::8                     79                       # What read queue length does an incoming req see
system.mem_ctrls2.rdQLenPdf::9                     78                       # What read queue length does an incoming req see
system.mem_ctrls2.rdQLenPdf::10                    63                       # What read queue length does an incoming req see
system.mem_ctrls2.rdQLenPdf::11                    57                       # What read queue length does an incoming req see
system.mem_ctrls2.rdQLenPdf::12                    48                       # What read queue length does an incoming req see
system.mem_ctrls2.rdQLenPdf::13                    39                       # What read queue length does an incoming req see
system.mem_ctrls2.rdQLenPdf::14                    40                       # What read queue length does an incoming req see
system.mem_ctrls2.rdQLenPdf::15                    40                       # What read queue length does an incoming req see
system.mem_ctrls2.rdQLenPdf::16                    26                       # What read queue length does an incoming req see
system.mem_ctrls2.rdQLenPdf::17                    37                       # What read queue length does an incoming req see
system.mem_ctrls2.rdQLenPdf::18                    34                       # What read queue length does an incoming req see
system.mem_ctrls2.rdQLenPdf::19                    22                       # What read queue length does an incoming req see
system.mem_ctrls2.rdQLenPdf::20                    23                       # What read queue length does an incoming req see
system.mem_ctrls2.rdQLenPdf::21                    15                       # What read queue length does an incoming req see
system.mem_ctrls2.rdQLenPdf::22                    22                       # What read queue length does an incoming req see
system.mem_ctrls2.rdQLenPdf::23                    17                       # What read queue length does an incoming req see
system.mem_ctrls2.rdQLenPdf::24                    20                       # What read queue length does an incoming req see
system.mem_ctrls2.rdQLenPdf::25                    18                       # What read queue length does an incoming req see
system.mem_ctrls2.rdQLenPdf::26                    18                       # What read queue length does an incoming req see
system.mem_ctrls2.rdQLenPdf::27                    15                       # What read queue length does an incoming req see
system.mem_ctrls2.rdQLenPdf::28                    18                       # What read queue length does an incoming req see
system.mem_ctrls2.rdQLenPdf::29                    25                       # What read queue length does an incoming req see
system.mem_ctrls2.rdQLenPdf::30                    30                       # What read queue length does an incoming req see
system.mem_ctrls2.rdQLenPdf::31                   495                       # What read queue length does an incoming req see
system.mem_ctrls2.wrQLenPdf::0                  11697                       # What write queue length does an incoming req see
system.mem_ctrls2.wrQLenPdf::1                  11891                       # What write queue length does an incoming req see
system.mem_ctrls2.wrQLenPdf::2                  11891                       # What write queue length does an incoming req see
system.mem_ctrls2.wrQLenPdf::3                  11861                       # What write queue length does an incoming req see
system.mem_ctrls2.wrQLenPdf::4                  11832                       # What write queue length does an incoming req see
system.mem_ctrls2.wrQLenPdf::5                    226                       # What write queue length does an incoming req see
system.mem_ctrls2.wrQLenPdf::6                    167                       # What write queue length does an incoming req see
system.mem_ctrls2.wrQLenPdf::7                    465                       # What write queue length does an incoming req see
system.mem_ctrls2.bytesPerActivate::samples        80460                       # Bytes accessed per row activation
system.mem_ctrls2.bytesPerActivate::mean   219.882873                       # Bytes accessed per row activation
system.mem_ctrls2.bytesPerActivate::gmean   140.877069                       # Bytes accessed per row activation
system.mem_ctrls2.bytesPerActivate::stdev   246.208453                       # Bytes accessed per row activation
system.mem_ctrls2.bytesPerActivate::0-127        37509     46.62%     46.62% # Bytes accessed per row activation
system.mem_ctrls2.bytesPerActivate::128-255        16807     20.89%     67.51% # Bytes accessed per row activation
system.mem_ctrls2.bytesPerActivate::256-383        14545     18.08%     85.58% # Bytes accessed per row activation
system.mem_ctrls2.bytesPerActivate::384-511         2655      3.30%     88.88% # Bytes accessed per row activation
system.mem_ctrls2.bytesPerActivate::512-639         1998      2.48%     91.37% # Bytes accessed per row activation
system.mem_ctrls2.bytesPerActivate::640-767         1272      1.58%     92.95% # Bytes accessed per row activation
system.mem_ctrls2.bytesPerActivate::768-895         1043      1.30%     94.24% # Bytes accessed per row activation
system.mem_ctrls2.bytesPerActivate::896-1023         1004      1.25%     95.49% # Bytes accessed per row activation
system.mem_ctrls2.bytesPerActivate::1024-1151         3627      4.51%    100.00% # Bytes accessed per row activation
system.mem_ctrls2.bytesPerActivate::total        80460                       # Bytes accessed per row activation
system.mem_ctrls2.rdPerTurnAround::samples        11735                       # Reads before turning the bus around for writes
system.mem_ctrls2.rdPerTurnAround::mean     18.382360                       # Reads before turning the bus around for writes
system.mem_ctrls2.rdPerTurnAround::stdev    77.479783                       # Reads before turning the bus around for writes
system.mem_ctrls2.rdPerTurnAround::0-127        11373     96.92%     96.92% # Reads before turning the bus around for writes
system.mem_ctrls2.rdPerTurnAround::128-255          185      1.58%     98.49% # Reads before turning the bus around for writes
system.mem_ctrls2.rdPerTurnAround::256-383           74      0.63%     99.12% # Reads before turning the bus around for writes
system.mem_ctrls2.rdPerTurnAround::384-511           49      0.42%     99.54% # Reads before turning the bus around for writes
system.mem_ctrls2.rdPerTurnAround::512-639           29      0.25%     99.79% # Reads before turning the bus around for writes
system.mem_ctrls2.rdPerTurnAround::640-767           10      0.09%     99.87% # Reads before turning the bus around for writes
system.mem_ctrls2.rdPerTurnAround::768-895            3      0.03%     99.90% # Reads before turning the bus around for writes
system.mem_ctrls2.rdPerTurnAround::896-1023            3      0.03%     99.92% # Reads before turning the bus around for writes
system.mem_ctrls2.rdPerTurnAround::1152-1279            1      0.01%     99.93% # Reads before turning the bus around for writes
system.mem_ctrls2.rdPerTurnAround::1280-1407            2      0.02%     99.95% # Reads before turning the bus around for writes
system.mem_ctrls2.rdPerTurnAround::1536-1663            1      0.01%     99.96% # Reads before turning the bus around for writes
system.mem_ctrls2.rdPerTurnAround::1664-1791            3      0.03%     99.98% # Reads before turning the bus around for writes
system.mem_ctrls2.rdPerTurnAround::1920-2047            1      0.01%     99.99% # Reads before turning the bus around for writes
system.mem_ctrls2.rdPerTurnAround::2816-2943            1      0.01%    100.00% # Reads before turning the bus around for writes
system.mem_ctrls2.rdPerTurnAround::total        11735                       # Reads before turning the bus around for writes
system.mem_ctrls2.wrPerTurnAround::samples        11735                       # Writes before turning the bus around for reads
system.mem_ctrls2.wrPerTurnAround::mean      5.115211                       # Writes before turning the bus around for reads
system.mem_ctrls2.wrPerTurnAround::gmean     5.079033                       # Writes before turning the bus around for reads
system.mem_ctrls2.wrPerTurnAround::stdev     0.863845                       # Writes before turning the bus around for reads
system.mem_ctrls2.wrPerTurnAround::4-7          11612     98.95%     98.95% # Writes before turning the bus around for reads
system.mem_ctrls2.wrPerTurnAround::8-11            53      0.45%     99.40% # Writes before turning the bus around for reads
system.mem_ctrls2.wrPerTurnAround::12-15           20      0.17%     99.57% # Writes before turning the bus around for reads
system.mem_ctrls2.wrPerTurnAround::16-19           50      0.43%    100.00% # Writes before turning the bus around for reads
system.mem_ctrls2.wrPerTurnAround::total        11735                       # Writes before turning the bus around for reads
system.mem_ctrls2.totQLat                  2801244295                       # Total ticks spent queuing
system.mem_ctrls2.totMemAccLat             6859194295                       # Total ticks spent from burst creation until serviced by the DRAM
system.mem_ctrls2.totBusLat                1082120000                       # Total ticks spent in databus transfers
system.mem_ctrls2.avgQLat                    12943.32                       # Average queueing delay per DRAM burst
system.mem_ctrls2.avgBusLat                   5000.00                       # Average bus latency per DRAM burst
system.mem_ctrls2.avgMemAccLat               31693.32                       # Average memory access latency per DRAM burst
system.mem_ctrls2.avgRdBW                      231.84                       # Average DRAM read bandwidth in MiByte/s
system.mem_ctrls2.avgWrBW                       64.30                       # Average achieved write bandwidth in MiByte/s
system.mem_ctrls2.avgRdBWSys                   231.86                       # Average system read bandwidth in MiByte/s
system.mem_ctrls2.avgWrBWSys                    64.31                       # Average system write bandwidth in MiByte/s
system.mem_ctrls2.peakBW                     12800.00                       # Theoretical peak bandwidth in MiByte/s
system.mem_ctrls2.busUtil                        2.31                       # Data bus utilization in percentage
system.mem_ctrls2.busUtilRead                    1.81                       # Data bus utilization in percentage for reads
system.mem_ctrls2.busUtilWrite                   0.50                       # Data bus utilization in percentage for writes
system.mem_ctrls2.avgRdQLen                      1.10                       # Average read queue length when enqueuing
system.mem_ctrls2.avgWrQLen                      2.96                       # Average write queue length when enqueuing
system.mem_ctrls2.readRowHits                  157077                       # Number of row buffer hits during reads
system.mem_ctrls2.writeRowHits                  38905                       # Number of row buffer hits during writes
system.mem_ctrls2.readRowHitRate                72.58                       # Row buffer hit rate for reads
system.mem_ctrls2.writeRowHitRate               64.81                       # Row buffer hit rate for writes
system.mem_ctrls2.avgGap                    216093.91                       # Average gap between requests
system.mem_ctrls2.pageHitRate                   70.89                       # Row buffer hit rate, read and write combined
system.mem_ctrls2.memoryStateTime::IDLE   11131723750                       # Time in different power states
system.mem_ctrls2.memoryStateTime::REF     1994720000                       # Time in different power states
system.mem_ctrls2.memoryStateTime::PRE_PDN            0                       # Time in different power states
system.mem_ctrls2.memoryStateTime::ACT    46610171250                       # Time in different power states
system.mem_ctrls2.memoryStateTime::ACT_PDN            0                       # Time in different power states
system.mem_ctrls2.actEnergy::0              309226680                       # Energy for activate commands per rank (pJ)
system.mem_ctrls2.actEnergy::1              299043360                       # Energy for activate commands per rank (pJ)
system.mem_ctrls2.preEnergy::0              168724875                       # Energy for precharge commands per rank (pJ)
system.mem_ctrls2.preEnergy::1              163168500                       # Energy for precharge commands per rank (pJ)
system.mem_ctrls2.readEnergy::0             851643000                       # Energy for read commands per rank (pJ)
system.mem_ctrls2.readEnergy::1             836323800                       # Energy for read commands per rank (pJ)
system.mem_ctrls2.writeEnergy::0            197594640                       # Energy for write commands per rank (pJ)
system.mem_ctrls2.writeEnergy::1            191380320                       # Energy for write commands per rank (pJ)
system.mem_ctrls2.refreshEnergy::0         3901672320                       # Energy for refresh commands per rank (pJ)
system.mem_ctrls2.refreshEnergy::1         3901672320                       # Energy for refresh commands per rank (pJ)
system.mem_ctrls2.actBackEnergy::0        25276882275                       # Energy for active background per rank (pJ)
system.mem_ctrls2.actBackEnergy::1        24499559025                       # Energy for active background per rank (pJ)
system.mem_ctrls2.preBackEnergy::0        13669118250                       # Energy for precharge background per rank (pJ)
system.mem_ctrls2.preBackEnergy::1        14350980750                       # Energy for precharge background per rank (pJ)
system.mem_ctrls2.totalEnergy::0          44374862040                       # Total energy per rank (pJ)
system.mem_ctrls2.totalEnergy::1          44242128075                       # Total energy per rank (pJ)
system.mem_ctrls2.averagePower::0          742.844971                       # Core power per rank (mW)
system.mem_ctrls2.averagePower::1          740.622975                       # Core power per rank (mW)
system.mem_ctrls3.bytes_read::ruby.dir_cntrl3     13836864                       # Number of bytes read from this memory
system.mem_ctrls3.bytes_read::total          13836864                       # Number of bytes read from this memory
system.mem_ctrls3.bytes_written::ruby.dir_cntrl3      3838464                       # Number of bytes written to this memory
system.mem_ctrls3.bytes_written::total        3838464                       # Number of bytes written to this memory
system.mem_ctrls3.num_reads::ruby.dir_cntrl3       216201                       # Number of read requests responded to by this memory
system.mem_ctrls3.num_reads::total             216201                       # Number of read requests responded to by this memory
system.mem_ctrls3.num_writes::ruby.dir_cntrl3        59976                       # Number of write requests responded to by this memory
system.mem_ctrls3.num_writes::total             59976                       # Number of write requests responded to by this memory
system.mem_ctrls3.bw_read::ruby.dir_cntrl3    231605143                       # Total read bandwidth from this memory (bytes/s)
system.mem_ctrls3.bw_read::total            231605143                       # Total read bandwidth from this memory (bytes/s)
system.mem_ctrls3.bw_write::ruby.dir_cntrl3     64249241                       # Write bandwidth from this memory (bytes/s)
system.mem_ctrls3.bw_write::total            64249241                       # Write bandwidth from this memory (bytes/s)
system.mem_ctrls3.bw_total::ruby.dir_cntrl3    295854384                       # Total bandwidth to/from this memory (bytes/s)
system.mem_ctrls3.bw_total::total           295854384                       # Total bandwidth to/from this memory (bytes/s)
system.mem_ctrls3.readReqs                     216202                       # Number of read requests accepted
system.mem_ctrls3.writeReqs                     59976                       # Number of write requests accepted
system.mem_ctrls3.readBursts                   216202                       # Number of DRAM read bursts, including those serviced by the write queue
system.mem_ctrls3.writeBursts                   59976                       # Number of DRAM write bursts, including those merged in the write queue
system.mem_ctrls3.bytesReadDRAM              13836160                       # Total number of bytes read from DRAM
system.mem_ctrls3.bytesReadWrQ                    768                       # Total number of bytes read from write queue
system.mem_ctrls3.bytesWritten                3838208                       # Total number of bytes written to DRAM
system.mem_ctrls3.bytesReadSys               13836928                       # Total read bytes from the system interface side
system.mem_ctrls3.bytesWrittenSys             3838464                       # Total written bytes from the system interface side
system.mem_ctrls3.servicedByWrQ                    12                       # Number of DRAM read bursts serviced by the write queue
system.mem_ctrls3.mergedWrBursts                    0                       # Number of DRAM write bursts merged with an existing one
system.mem_ctrls3.neitherReadNorWriteReqs            0                       # Number of requests that are neither read nor write
system.mem_ctrls3.perBankRdBursts::0            13270                       # Per bank write bursts
system.mem_ctrls3.perBankRdBursts::1            13822                       # Per bank write bursts
system.mem_ctrls3.perBankRdBursts::2            13450                       # Per bank write bursts
system.mem_ctrls3.perBankRdBursts::3            13898                       # Per bank write bursts
system.mem_ctrls3.perBankRdBursts::4            13490                       # Per bank write bursts
system.mem_ctrls3.perBankRdBursts::5            14083                       # Per bank write bursts
system.mem_ctrls3.perBankRdBursts::6            13511                       # Per bank write bursts
system.mem_ctrls3.perBankRdBursts::7            13491                       # Per bank write bursts
system.mem_ctrls3.perBankRdBursts::8            13398                       # Per bank write bursts
system.mem_ctrls3.perBankRdBursts::9            13703                       # Per bank write bursts
system.mem_ctrls3.perBankRdBursts::10           13441                       # Per bank write bursts
system.mem_ctrls3.perBankRdBursts::11           13658                       # Per bank write bursts
system.mem_ctrls3.perBankRdBursts::12           13200                       # Per bank write bursts
system.mem_ctrls3.perBankRdBursts::13           13061                       # Per bank write bursts
system.mem_ctrls3.perBankRdBursts::14           13312                       # Per bank write bursts
system.mem_ctrls3.perBankRdBursts::15           13402                       # Per bank write bursts
system.mem_ctrls3.perBankWrBursts::0             3684                       # Per bank write bursts
system.mem_ctrls3.perBankWrBursts::1             3769                       # Per bank write bursts
system.mem_ctrls3.perBankWrBursts::2             3752                       # Per bank write bursts
system.mem_ctrls3.perBankWrBursts::3             3975                       # Per bank write bursts
system.mem_ctrls3.perBankWrBursts::4             3768                       # Per bank write bursts
system.mem_ctrls3.perBankWrBursts::5             3909                       # Per bank write bursts
system.mem_ctrls3.perBankWrBursts::6             3808                       # Per bank write bursts
system.mem_ctrls3.perBankWrBursts::7             3773                       # Per bank write bursts
system.mem_ctrls3.perBankWrBursts::8             3662                       # Per bank write bursts
system.mem_ctrls3.perBankWrBursts::9             3908                       # Per bank write bursts
system.mem_ctrls3.perBankWrBursts::10            3671                       # Per bank write bursts
system.mem_ctrls3.perBankWrBursts::11            3622                       # Per bank write bursts
system.mem_ctrls3.perBankWrBursts::12            3573                       # Per bank write bursts
system.mem_ctrls3.perBankWrBursts::13            3595                       # Per bank write bursts
system.mem_ctrls3.perBankWrBursts::14            3795                       # Per bank write bursts
system.mem_ctrls3.perBankWrBursts::15            3708                       # Per bank write bursts
system.mem_ctrls3.numRdRetry                      460                       # Number of times read queue was full causing retry
system.mem_ctrls3.numWrRetry                      309                       # Number of times write queue was full causing retry
system.mem_ctrls3.totGap                  59742591000                       # Total gap between requests
system.mem_ctrls3.readPktSize::0                    0                       # Read request sizes (log2)
system.mem_ctrls3.readPktSize::1                    0                       # Read request sizes (log2)
system.mem_ctrls3.readPktSize::2                    0                       # Read request sizes (log2)
system.mem_ctrls3.readPktSize::3                    0                       # Read request sizes (log2)
system.mem_ctrls3.readPktSize::4                    0                       # Read request sizes (log2)
system.mem_ctrls3.readPktSize::5                    0                       # Read request sizes (log2)
system.mem_ctrls3.readPktSize::6               216202                       # Read request sizes (log2)
system.mem_ctrls3.writePktSize::0                   0                       # Write request sizes (log2)
[...]
system.ruby.L2Cache_Controller.IM.Mem_Data::total       190203                      
system.ruby.L2Cache_Controller.SS_MB.L1_GETX |           1    100.00%    100.00% |           0      0.00%    100.00% |           0      0.00%    100.00% |           0      0.00%    100.00% |           0      0.00%    100.00% |           0      0.00%    100.00% |           0      0.00%    100.00% |           0      0.00%    100.00% |           0      0.00%    100.00% |           0      0.00%    100.00% |           0      0.00%    100.00% |           0      0.00%    100.00% |           0      0.00%    100.00% |           0      0.00%    100.00% |           0      0.00%    100.00% |           0      0.00%    100.00% |           0      0.00%    100.00% |           0      0.00%    100.00% |           0      0.00%    100.00% |           0      0.00%    100.00% |           0      0.00%    100.00% |           0      0.00%    100.00% |           0      0.00%    100.00% |           0      0.00%    100.00% |           0      0.00%    100.00% |           0      0.00%    100.00% |           0      0.00%    100.00% |           0      0.00%    100.00% |           0      0.00%    100.00% |           0      0.00%    100.00% |           0      0.00%    100.00% |           0      0.00%    100.00%
system.ruby.L2Cache_Controller.SS_MB.L1_GETX::total            1                      
system.ruby.L2Cache_Controller.SS_MB.Exclusive_Unblock |         213     81.30%     81.30% |           6      2.29%     83.59% |           3      1.15%     84.73% |           6      2.29%     87.02% |           0      0.00%     87.02% |           1      0.38%     87.40% |           1      0.38%     87.79% |           0      0.00%     87.79% |           0      0.00%     87.79% |           1      0.38%     88.17% |           0      0.00%     88.17% |           0      0.00%     88.17% |           5      1.91%     90.08% |           0      0.00%     90.08% |           2      0.76%     90.84% |           1      0.38%     91.22% |           0      0.00%     91.22% |           0      0.00%     91.22% |          10      3.82%     95.04% |           2      0.76%     95.80% |           0      0.00%     95.80% |           0      0.00%     95.80% |           0      0.00%     95.80% |           0      0.00%     95.80% |           1      0.38%     96.18% |           0      0.00%     96.18% |           2      0.76%     96.95% |           1      0.38%     97.33% |           4      1.53%     98.85% |           1      0.38%     99.24% |           1      0.38%     99.62% |           1      0.38%    100.00%
system.ruby.L2Cache_Controller.SS_MB.Exclusive_Unblock::total          262                      
system.ruby.L2Cache_Controller.MT_MB.L1_GETS |           1    100.00%    100.00% |           0      0.00%    100.00% |           0      0.00%    100.00% |           0      0.00%    100.00% |           0      0.00%    100.00% |           0      0.00%    100.00% |           0      0.00%    100.00% |           0      0.00%    100.00% |           0      0.00%    100.00% |           0      0.00%    100.00% |           0      0.00%    100.00% |           0      0.00%    100.00% |           0      0.00%    100.00% |           0      0.00%    100.00% |           0      0.00%    100.00% |           0      0.00%    100.00% |           0      0.00%    100.00% |           0      0.00%    100.00% |           0      0.00%    100.00% |           0      0.00%    100.00% |           0      0.00%    100.00% |           0      0.00%    100.00% |           0      0.00%    100.00% |           0      0.00%    100.00% |           0      0.00%    100.00% |           0      0.00%    100.00% |           0      0.00%    100.00% |           0      0.00%    100.00% |           0      0.00%    100.00% |           0      0.00%    100.00% |           0      0.00%    100.00% |           0      0.00%    100.00%
system.ruby.L2Cache_Controller.MT_MB.L1_GETS::total            1                      
system.ruby.L2Cache_Controller.MT_MB.Exclusive_Unblock |       77642      7.09%      7.09% |       33387      3.05%     10.14% |       32684      2.98%     13.12% |       32853      3.00%     16.13% |       33108      3.02%     19.15% |       32032      2.93%     22.07% |       31956      2.92%     24.99% |       31672      2.89%     27.89% |       33958      3.10%     30.99% |       32355      2.95%     33.94% |       34303      3.13%     37.07% |       33124      3.03%     40.10% |       32694      2.99%     43.08% |       31745      2.90%     45.98% |       31778      2.90%     48.89% |       31669      2.89%     51.78% |       34273      3.13%     54.91% |       32114      2.93%     57.84% |       32965      3.01%     60.85% |       32541      2.97%     63.82% |       33034      3.02%     66.84% |       32476      2.97%     69.81% |       33015      3.02%     72.82% |       32009      2.92%     75.75% |       33647      3.07%     78.82% |       32343      2.95%     81.77% |       32844      3.00%     84.77% |       31819      2.91%     87.68% |       33167      3.03%     90.71% |       31906      2.91%     93.62% |       34283      3.13%     96.75% |       35575      3.25%    100.00%
system.ruby.L2Cache_Controller.MT_MB.Exclusive_Unblock::total      1094971                      
system.ruby.L2Cache_Controller.MT_IIB.L1_GETS |           1     14.29%     14.29% |           5     71.43%     85.71% |           1     14.29%    100.00% |           0      0.00%    100.00% |           0      0.00%    100.00% |           0      0.00%    100.00% |           0      0.00%    100.00% |           0      0.00%    100.00% |           0      0.00%    100.00% |           0      0.00%    100.00% |           0      0.00%    100.00% |           0      0.00%    100.00% |           0      0.00%    100.00% |           0      0.00%    100.00% |           0      0.00%    100.00% |           0      0.00%    100.00% |           0      0.00%    100.00% |           0      0.00%    100.00% |           0      0.00%    100.00% |           0      0.00%    100.00% |           0      0.00%    100.00% |           0      0.00%    100.00% |           0      0.00%    100.00% |           0      0.00%    100.00% |           0      0.00%    100.00% |           0      0.00%    100.00% |           0      0.00%    100.00% |           0      0.00%    100.00% |           0      0.00%    100.00% |           0      0.00%    100.00% |           0      0.00%    100.00% |           0      0.00%    100.00%
system.ruby.L2Cache_Controller.MT_IIB.L1_GETS::total            7                      
system.ruby.L2Cache_Controller.MT_IIB.WB_Data |         176      7.61%      7.61% |          70      3.03%     10.64% |          68      2.94%     13.58% |          62      2.68%     16.26% |          69      2.98%     19.25% |          69      2.98%     22.23% |          69      2.98%     25.22% |          69      2.98%     28.20% |          69      2.98%     31.19% |          69      2.98%     34.17% |          68      2.94%     37.11% |          67      2.90%     40.01% |          73      3.16%     43.17% |          69      2.98%     46.15% |          69      2.98%     49.13% |          69      2.98%     52.12% |          69      2.98%     55.10% |          69      2.98%     58.09% |          70      3.03%     61.12% |          69      2.98%     64.10% |          69      2.98%     67.08% |          69      2.98%     70.07% |          71      3.07%     73.14% |          69      2.98%     76.12% |          69      2.98%     79.11% |          69      2.98%     82.09% |          69      2.98%     85.08% |          69      2.98%     88.06% |          69      2.98%     91.05% |          69      2.98%     94.03% |          69      2.98%     97.02% |          69      2.98%    100.00%
system.ruby.L2Cache_Controller.MT_IIB.WB_Data::total         2312                      
system.ruby.L2Cache_Controller.MT_IIB.WB_Data_clean |         607     96.81%     96.81% |           4      0.64%     97.45% |           3      0.48%     97.93% |           3      0.48%     98.41% |           0      0.00%     98.41% |           0      0.00%     98.41% |           0      0.00%     98.41% |           0      0.00%     98.41% |           0      0.00%     98.41% |           0      0.00%     98.41% |           0      0.00%     98.41% |           0      0.00%     98.41% |           0      0.00%     98.41% |           0      0.00%     98.41% |           1      0.16%     98.56% |           0      0.00%     98.56% |           1      0.16%     98.72% |           3      0.48%     99.20% |           3      0.48%     99.68% |           2      0.32%    100.00% |           0      0.00%    100.00% |           0      0.00%    100.00% |           0      0.00%    100.00% |           0      0.00%    100.00% |           0      0.00%    100.00% |           0      0.00%    100.00% |           0      0.00%    100.00% |           0      0.00%    100.00% |           0      0.00%    100.00% |           0      0.00%    100.00% |           0      0.00%    100.00% |           0      0.00%    100.00%
system.ruby.L2Cache_Controller.MT_IIB.WB_Data_clean::total          627                      
system.ruby.L2Cache_Controller.MT_IIB.Unblock |           0      0.00%      0.00% |           1      6.25%      6.25% |           1      6.25%     12.50% |           7     43.75%     56.25% |           0      0.00%     56.25% |           0      0.00%     56.25% |           0      0.00%     56.25% |           0      0.00%     56.25% |           0      0.00%     56.25% |           0      0.00%     56.25% |           1      6.25%     62.50% |           2     12.50%     75.00% |           0      0.00%     75.00% |           0      0.00%     75.00% |           0      0.00%     75.00% |           0      0.00%     75.00% |           0      0.00%     75.00% |           0      0.00%     75.00% |           0      0.00%     75.00% |           1      6.25%     81.25% |           0      0.00%     81.25% |           0      0.00%     81.25% |           0      0.00%     81.25% |           0      0.00%     81.25% |           0      0.00%     81.25% |           1      6.25%     87.50% |           0      0.00%     87.50% |           0      0.00%     87.50% |           2     12.50%    100.00% |           0      0.00%    100.00% |           0      0.00%    100.00% |           0      0.00%    100.00%
system.ruby.L2Cache_Controller.MT_IIB.Unblock::total           16                      
system.ruby.L2Cache_Controller.MT_IB.WB_Data |           0      0.00%      0.00% |           1      6.25%      6.25% |           1      6.25%     12.50% |           7     43.75%     56.25% |           0      0.00%     56.25% |           0      0.00%     56.25% |           0      0.00%     56.25% |           0      0.00%     56.25% |           0      0.00%     56.25% |           0      0.00%     56.25% |           1      6.25%     62.50% |           2     12.50%     75.00% |           0      0.00%     75.00% |           0      0.00%     75.00% |           0      0.00%     75.00% |           0      0.00%     75.00% |           0      0.00%     75.00% |           0      0.00%     75.00% |           0      0.00%     75.00% |           1      6.25%     81.25% |           0      0.00%     81.25% |           0      0.00%     81.25% |           0      0.00%     81.25% |           0      0.00%     81.25% |           0      0.00%     81.25% |           1      6.25%     87.50% |           0      0.00%     87.50% |           0      0.00%     87.50% |           2     12.50%    100.00% |           0      0.00%    100.00% |           0      0.00%    100.00% |           0      0.00%    100.00%
system.ruby.L2Cache_Controller.MT_IB.WB_Data::total           16                      
system.ruby.L2Cache_Controller.MT_SB.L1_GETS |           0      0.00%      0.00% |           1     33.33%     33.33% |           1     33.33%     66.67% |           1     33.33%    100.00% |           0      0.00%    100.00% |           0      0.00%    100.00% |           0      0.00%    100.00% |           0      0.00%    100.00% |           0      0.00%    100.00% |           0      0.00%    100.00% |           0      0.00%    100.00% |           0      0.00%    100.00% |           0      0.00%    100.00% |           0      0.00%    100.00% |           0      0.00%    100.00% |           0      0.00%    100.00% |           0      0.00%    100.00% |           0      0.00%    100.00% |           0      0.00%    100.00% |           0      0.00%    100.00% |           0      0.00%    100.00% |           0      0.00%    100.00% |           0      0.00%    100.00% |           0      0.00%    100.00% |           0      0.00%    100.00% |           0      0.00%    100.00% |           0      0.00%    100.00% |           0      0.00%    100.00% |           0      0.00%    100.00% |           0      0.00%    100.00% |           0      0.00%    100.00% |           0      0.00%    100.00%
system.ruby.L2Cache_Controller.MT_SB.L1_GETS::total            3                      
system.ruby.L2Cache_Controller.MT_SB.Unblock |         783     26.64%     26.64% |          74      2.52%     29.16% |          71      2.42%     31.58% |          65      2.21%     33.79% |          69      2.35%     36.13% |          69      2.35%     38.48% |          69      2.35%     40.83% |          69      2.35%     43.18% |          69      2.35%     45.53% |          69      2.35%     47.87% |          68      2.31%     50.19% |          67      2.28%     52.47% |          73      2.48%     54.95% |          69      2.35%     57.30% |          70      2.38%     59.68% |          69      2.35%     62.03% |          70      2.38%     64.41% |          72      2.45%     66.86% |          73      2.48%     69.34% |          71      2.42%     71.76% |          69      2.35%     74.11% |          69      2.35%     76.45% |          71      2.42%     78.87% |          69      2.35%     81.22% |          69      2.35%     83.57% |          69      2.35%     85.91% |          69      2.35%     88.26% |          69      2.35%     90.61% |          69      2.35%     92.96% |          69      2.35%     95.30% |          69      2.35%     97.65% |          69      2.35%    100.00%
system.ruby.L2Cache_Controller.MT_SB.Unblock::total         2939                      
system.ruby.SimicsNetworkPortInterface_Controller.MessageSend |       76178      4.27%      4.27% |      891440     50.00%     54.27% |      107861      6.05%     60.32% |      102800      5.77%     66.09% |      101159      5.67%     71.76% |      102898      5.77%     77.53% |      101502      5.69%     83.23% |      103149      5.79%     89.01% |       97170      5.45%     94.46% |       98723      5.54%    100.00% |           0      0.00%    100.00% |           0      0.00%    100.00% |           0      0.00%    100.00% |           0      0.00%    100.00% |           0      0.00%    100.00% |           0      0.00%    100.00% |           0      0.00%    100.00% |           0      0.00%    100.00% |           0      0.00%    100.00% |           0      0.00%    100.00% |           0      0.00%    100.00% |           0      0.00%    100.00% |           0      0.00%    100.00% |           0      0.00%    100.00% |           0      0.00%    100.00% |           0      0.00%    100.00% |           0      0.00%    100.00% |           0      0.00%    100.00% |           0      0.00%    100.00% |           0      0.00%    100.00% |           0      0.00%    100.00% |           0      0.00%    100.00%
system.ruby.SimicsNetworkPortInterface_Controller.MessageSend::total      1782880                      
system.ruby.SimicsNetworkPortInterface_Controller.MessageRecv |       76178      4.27%      4.27% |      891440     50.00%     54.27% |      107861      6.05%     60.32% |      102800      5.77%     66.09% |      101159      5.67%     71.76% |      102898      5.77%     77.53% |      101502      5.69%     83.23% |      103149      5.79%     89.01% |       97170      5.45%     94.46% |       98723      5.54%    100.00% |           0      0.00%    100.00% |           0      0.00%    100.00% |           0      0.00%    100.00% |           0      0.00%    100.00% |           0      0.00%    100.00% |           0      0.00%    100.00% |           0      0.00%    100.00% |           0      0.00%    100.00% |           0      0.00%    100.00% |           0      0.00%    100.00% |           0      0.00%    100.00% |           0      0.00%    100.00% |           0      0.00%    100.00% |           0      0.00%    100.00% |           0      0.00%    100.00% |           0      0.00%    100.00% |           0      0.00%    100.00% |           0      0.00%    100.00% |           0      0.00%    100.00% |           0      0.00%    100.00% |           0      0.00%    100.00% |           0      0.00%    100.00%
system.ruby.SimicsNetworkPortInterface_Controller.MessageRecv::total      1782880                      
system.ruby.SimicsNetworkPortInterface_Controller.A.MessageSend |       76178      4.27%      4.27% |      891440     50.00%     54.27% |      107861      6.05%     60.32% |      102800      5.77%     66.09% |      101159      5.67%     71.76% |      102898      5.77%     77.53% |      101502      5.69%     83.23% |      103149      5.79%     89.01% |       97170      5.45%     94.46% |       98723      5.54%    100.00% |           0      0.00%    100.00% |           0      0.00%    100.00% |           0      0.00%    100.00% |           0      0.00%    100.00% |           0      0.00%    100.00% |           0      0.00%    100.00% |           0      0.00%    100.00% |           0      0.00%    100.00% |           0      0.00%    100.00% |           0      0.00%    100.00% |           0      0.00%    100.00% |           0      0.00%    100.00% |           0      0.00%    100.00% |           0      0.00%    100.00% |           0      0.00%    100.00% |           0      0.00%    100.00% |           0      0.00%    100.00% |           0      0.00%    100.00% |           0      0.00%    100.00% |           0      0.00%    100.00% |           0      0.00%    100.00% |           0      0.00%    100.00%
system.ruby.SimicsNetworkPortInterface_Controller.A.MessageSend::total      1782880                      
system.ruby.SimicsNetworkPortInterface_Controller.A.MessageRecv |       76178      4.27%      4.27% |      891440     50.00%     54.27% |      107861      6.05%     60.32% |      102800      5.77%     66.09% |      101159      5.67%     71.76% |      102898      5.77%     77.53% |      101502      5.69%     83.23% |      103149      5.79%     89.01% |       97170      5.45%     94.46% |       98723      5.54%    100.00% |           0      0.00%    100.00% |           0      0.00%    100.00% |           0      0.00%    100.00% |           0      0.00%    100.00% |           0      0.00%    100.00% |           0      0.00%    100.00% |           0      0.00%    100.00% |           0      0.00%    100.00% |           0      0.00%    100.00% |           0      0.00%    100.00% |           0      0.00%    100.00% |           0      0.00%    100.00% |           0      0.00%    100.00% |           0      0.00%    100.00% |           0      0.00%    100.00% |           0      0.00%    100.00% |           0      0.00%    100.00% |           0      0.00%    100.00% |           0      0.00%    100.00% |           0      0.00%    100.00% |           0      0.00%    100.00% |           0      0.00%    100.00%
system.ruby.SimicsNetworkPortInterface_Controller.A.MessageRecv::total      1782880                      
system.switch_cpus.kern.inst.arm                    0                       # number of arm instructions executed
system.switch_cpus.kern.inst.quiesce                0                       # number of quiesce instructions executed

---------- End Simulation Statistics   ----------
