
---------- Begin Simulation Statistics ----------
sim_seconds                                  0.111374                       # Number of seconds simulated
sim_ticks                                111373997500                       # Number of ticks simulated
final_tick                               5287542076000                       # Number of ticks from beginning of simulation (restored from checkpoints and never reset)
sim_freq                                 1000000000000                       # Frequency of simulated ticks
host_inst_rate                                  36039                       # Simulator instruction rate (inst/s)
host_op_rate                                    61020                       # Simulator op (including micro ops) rate (op/s)
host_tick_rate                               62803697                       # Simulator tick rate (ticks/s)
host_mem_usage                                5499104                       # Number of bytes of host memory used
host_seconds                                  1773.37                       # Real time elapsed on the host
sim_insts                                    63910464                       # Number of instructions simulated
sim_ops                                     108210459                       # Number of ops (including micro ops) simulated
system.voltage_domain.voltage                       1                       # Voltage in Volts
system.clk_domain.clock                           500                       # Clock period in ticks
system.mem_ctrls0.bytes_read::ruby.dir_cntrl0     21103296                       # Number of bytes read from this memory
system.mem_ctrls0.bytes_read::total          21103296                       # Number of bytes read from this memory
system.mem_ctrls0.bytes_written::ruby.dir_cntrl0     11915456                       # Number of bytes written to this memory
system.mem_ctrls0.bytes_written::total       11915456                       # Number of bytes written to this memory
system.mem_ctrls0.num_reads::ruby.dir_cntrl0       329739                       # Number of read requests responded to by this memory
system.mem_ctrls0.num_reads::total             329739                       # Number of read requests responded to by this memory
system.mem_ctrls0.num_writes::ruby.dir_cntrl0       186179                       # Number of write requests responded to by this memory
system.mem_ctrls0.num_writes::total            186179                       # Number of write requests responded to by this memory
system.mem_ctrls0.bw_read::ruby.dir_cntrl0    189481355                       # Total read bandwidth from this memory (bytes/s)
system.mem_ctrls0.bw_read::total            189481355                       # Total read bandwidth from this memory (bytes/s)
system.mem_ctrls0.bw_write::ruby.dir_cntrl0    106985978                       # Write bandwidth from this memory (bytes/s)
system.mem_ctrls0.bw_write::total           106985978                       # Write bandwidth from this memory (bytes/s)
system.mem_ctrls0.bw_total::ruby.dir_cntrl0    296467333                       # Total bandwidth to/from this memory (bytes/s)
system.mem_ctrls0.bw_total::total           296467333                       # Total bandwidth to/from this memory (bytes/s)
system.mem_ctrls0.readReqs                     329739                       # Number of read requests accepted
system.mem_ctrls0.writeReqs                    186179                       # Number of write requests accepted
system.mem_ctrls0.readBursts                   329739                       # Number of DRAM read bursts, including those serviced by the write queue
system.mem_ctrls0.writeBursts                  186179                       # Number of DRAM write bursts, including those merged in the write queue
system.mem_ctrls0.bytesReadDRAM              21101248                       # Total number of bytes read from DRAM
system.mem_ctrls0.bytesReadWrQ                   2048                       # Total number of bytes read from write queue
system.mem_ctrls0.bytesWritten               11915200                       # Total number of bytes written to DRAM
system.mem_ctrls0.bytesReadSys               21103296                       # Total read bytes from the system interface side
system.mem_ctrls0.bytesWrittenSys            11915456                       # Total written bytes from the system interface side
system.mem_ctrls0.servicedByWrQ                    32                       # Number of DRAM read bursts serviced by the write queue
system.mem_ctrls0.mergedWrBursts                    0                       # Number of DRAM write bursts merged with an existing one
system.mem_ctrls0.neitherReadNorWriteReqs            0                       # Number of requests that are neither read nor write
system.mem_ctrls0.perBankRdBursts::0            20282                       # Per bank write bursts
system.mem_ctrls0.perBankRdBursts::1            21014                       # Per bank write bursts
system.mem_ctrls0.perBankRdBursts::2            20511                       # Per bank write bursts
system.mem_ctrls0.perBankRdBursts::3            20823                       # Per bank write bursts
system.mem_ctrls0.perBankRdBursts::4            20511                       # Per bank write bursts
system.mem_ctrls0.perBankRdBursts::5            20987                       # Per bank write bursts
system.mem_ctrls0.perBankRdBursts::6            20639                       # Per bank write bursts
system.mem_ctrls0.perBankRdBursts::7            20730                       # Per bank write bursts
system.mem_ctrls0.perBankRdBursts::8            20679                       # Per bank write bursts
system.mem_ctrls0.perBankRdBursts::9            20855                       # Per bank write bursts
system.mem_ctrls0.perBankRdBursts::10           20612                       # Per bank write bursts
system.mem_ctrls0.perBankRdBursts::11           20892                       # Per bank write bursts
system.mem_ctrls0.perBankRdBursts::12           20231                       # Per bank write bursts
system.mem_ctrls0.perBankRdBursts::13           20143                       # Per bank write bursts
system.mem_ctrls0.perBankRdBursts::14           20445                       # Per bank write bursts
system.mem_ctrls0.perBankRdBursts::15           20353                       # Per bank write bursts
system.mem_ctrls0.perBankWrBursts::0            11510                       # Per bank write bursts
system.mem_ctrls0.perBankWrBursts::1            11662                       # Per bank write bursts
system.mem_ctrls0.perBankWrBursts::2            11658                       # Per bank write bursts
system.mem_ctrls0.perBankWrBursts::3            11650                       # Per bank write bursts
system.mem_ctrls0.perBankWrBursts::4            11610                       # Per bank write bursts
system.mem_ctrls0.perBankWrBursts::5            11920                       # Per bank write bursts
system.mem_ctrls0.perBankWrBursts::6            11561                       # Per bank write bursts
system.mem_ctrls0.perBankWrBursts::7            11686                       # Per bank write bursts
system.mem_ctrls0.perBankWrBursts::8            11903                       # Per bank write bursts
system.mem_ctrls0.perBankWrBursts::9            11747                       # Per bank write bursts
system.mem_ctrls0.perBankWrBursts::10           11536                       # Per bank write bursts
system.mem_ctrls0.perBankWrBursts::11           11711                       # Per bank write bursts
system.mem_ctrls0.perBankWrBursts::12           11350                       # Per bank write bursts
system.mem_ctrls0.perBankWrBursts::13           11315                       # Per bank write bursts
system.mem_ctrls0.perBankWrBursts::14           11755                       # Per bank write bursts
system.mem_ctrls0.perBankWrBursts::15           11601                       # Per bank write bursts
system.mem_ctrls0.numRdRetry                        0                       # Number of times read queue was full causing retry
system.mem_ctrls0.numWrRetry                     1021                       # Number of times write queue was full causing retry
system.mem_ctrls0.totGap                 111373435000                       # Total gap between requests
system.mem_ctrls0.readPktSize::0                    0                       # Read request sizes (log2)
system.mem_ctrls0.readPktSize::1                    0                       # Read request sizes (log2)
system.mem_ctrls0.readPktSize::2                    0                       # Read request sizes (log2)
system.mem_ctrls0.readPktSize::3                    0                       # Read request sizes (log2)
system.mem_ctrls0.readPktSize::4                    0                       # Read request sizes (log2)
system.mem_ctrls0.readPktSize::5                    0                       # Read request sizes (log2)
system.mem_ctrls0.readPktSize::6               329739                       # Read request sizes (log2)
system.mem_ctrls0.writePktSize::0                   0                       # Write request sizes (log2)
system.mem_ctrls0.writePktSize::1                   0                       # Write request sizes (log2)
system.mem_ctrls0.writePktSize::2                   0                       # Write request sizes (log2)
system.mem_ctrls0.writePktSize::3                   0                       # Write request sizes (log2)
system.mem_ctrls0.writePktSize::4                   0                       # Write request sizes (log2)
system.mem_ctrls0.writePktSize::5                   0                       # Write request sizes (log2)
system.mem_ctrls0.writePktSize::6              186179                       # Write request sizes (log2)
system.mem_ctrls0.rdQLenPdf::0                 168802                       # What read queue length does an incoming req see
system.mem_ctrls0.rdQLenPdf::1                  48243                       # What read queue length does an incoming req see
system.mem_ctrls0.rdQLenPdf::2                  35998                       # What read queue length does an incoming req see
system.mem_ctrls0.rdQLenPdf::3                  22862                       # What read queue length does an incoming req see
system.mem_ctrls0.rdQLenPdf::4                  15310                       # What read queue length does an incoming req see
system.mem_ctrls0.rdQLenPdf::5                  11429                       # What read queue length does an incoming req see
system.mem_ctrls0.rdQLenPdf::6                   8162                       # What read queue length does an incoming req see
system.mem_ctrls0.rdQLenPdf::7                   5764                       # What read queue length does an incoming req see
system.mem_ctrls0.rdQLenPdf::8                   4157                       # What read queue length does an incoming req see
system.mem_ctrls0.rdQLenPdf::9                   2742                       # What read queue length does an incoming req see
system.mem_ctrls0.rdQLenPdf::10                  1813                       # What read queue length does an incoming req see
system.mem_ctrls0.rdQLenPdf::11                  1183                       # What read queue length does an incoming req see
system.mem_ctrls0.rdQLenPdf::12                   806                       # What read queue length does an incoming req see
system.mem_ctrls0.rdQLenPdf::13                   584                       # What read queue length does an incoming req see
system.mem_ctrls0.rdQLenPdf::14                   411                       # What read queue length does an incoming req see
system.mem_ctrls0.rdQLenPdf::15                   331                       # What read queue length does an incoming req see
system.mem_ctrls0.rdQLenPdf::16                   268                       # What read queue length does an incoming req see
system.mem_ctrls0.rdQLenPdf::17                   215                       # What read queue length does an incoming req see
system.mem_ctrls0.rdQLenPdf::18                   175                       # What read queue length does an incoming req see
system.mem_ctrls0.rdQLenPdf::19                   111                       # What read queue length does an incoming req see
system.mem_ctrls0.rdQLenPdf::20                   109                       # What read queue length does an incoming req see
system.mem_ctrls0.rdQLenPdf::21                    94                       # What read queue length does an incoming req see
system.mem_ctrls0.rdQLenPdf::22                    57                       # What read queue length does an incoming req see
system.mem_ctrls0.rdQLenPdf::23                    37                       # What read queue length does an incoming req see
system.mem_ctrls0.rdQLenPdf::24                    27                       # What read queue length does an incoming req see
system.mem_ctrls0.rdQLenPdf::25                    12                       # What read queue length does an incoming req see
system.mem_ctrls0.rdQLenPdf::26                     4                       # What read queue length does an incoming req see
system.mem_ctrls0.rdQLenPdf::27                     1                       # What read queue length does an incoming req see
system.mem_ctrls0.rdQLenPdf::28                     0                       # What read queue length does an incoming req see
system.mem_ctrls0.rdQLenPdf::29                     0                       # What read queue length does an incoming req see
system.mem_ctrls0.rdQLenPdf::30                     0                       # What read queue length does an incoming req see
system.mem_ctrls0.rdQLenPdf::31                     0                       # What read queue length does an incoming req see
system.mem_ctrls0.wrQLenPdf::0                  33364                       # What write queue length does an incoming req see
system.mem_ctrls0.wrQLenPdf::1                  36126                       # What write queue length does an incoming req see
system.mem_ctrls0.wrQLenPdf::2                  37009                       # What write queue length does an incoming req see
system.mem_ctrls0.wrQLenPdf::3                  36969                       # What write queue length does an incoming req see
system.mem_ctrls0.wrQLenPdf::4                  36277                       # What write queue length does an incoming req see
system.mem_ctrls0.wrQLenPdf::5                   2759                       # What write queue length does an incoming req see
system.mem_ctrls0.wrQLenPdf::6                   1643                       # What write queue length does an incoming req see
system.mem_ctrls0.wrQLenPdf::7                   2032                       # What write queue length does an incoming req see
system.mem_ctrls0.bytesPerActivate::samples       153981                       # Bytes accessed per row activation
system.mem_ctrls0.bytesPerActivate::mean   214.413155                       # Bytes accessed per row activation
system.mem_ctrls0.bytesPerActivate::gmean   164.893252                       # Bytes accessed per row activation
system.mem_ctrls0.bytesPerActivate::stdev   163.878543                       # Bytes accessed per row activation
system.mem_ctrls0.bytesPerActivate::0-127        44922     29.17%     29.17% # Bytes accessed per row activation
system.mem_ctrls0.bytesPerActivate::128-255        46816     30.40%     59.58% # Bytes accessed per row activation
system.mem_ctrls0.bytesPerActivate::256-383        45654     29.65%     89.23% # Bytes accessed per row activation
system.mem_ctrls0.bytesPerActivate::384-511         7003      4.55%     93.77% # Bytes accessed per row activation
system.mem_ctrls0.bytesPerActivate::512-639         4980      3.23%     97.01% # Bytes accessed per row activation
system.mem_ctrls0.bytesPerActivate::640-767         1634      1.06%     98.07% # Bytes accessed per row activation
system.mem_ctrls0.bytesPerActivate::768-895         1302      0.85%     98.92% # Bytes accessed per row activation
system.mem_ctrls0.bytesPerActivate::896-1023          756      0.49%     99.41% # Bytes accessed per row activation
system.mem_ctrls0.bytesPerActivate::1024-1151          914      0.59%    100.00% # Bytes accessed per row activation
system.mem_ctrls0.bytesPerActivate::total       153981                       # Bytes accessed per row activation
system.mem_ctrls0.rdPerTurnAround::samples        33444                       # Reads before turning the bus around for writes
system.mem_ctrls0.rdPerTurnAround::mean      9.858181                       # Reads before turning the bus around for writes
system.mem_ctrls0.rdPerTurnAround::stdev    24.230279                       # Reads before turning the bus around for writes
system.mem_ctrls0.rdPerTurnAround::0-127        33437     99.98%     99.98% # Reads before turning the bus around for writes
system.mem_ctrls0.rdPerTurnAround::128-255            6      0.02%    100.00% # Reads before turning the bus around for writes
system.mem_ctrls0.rdPerTurnAround::3968-4095            1      0.00%    100.00% # Reads before turning the bus around for writes
system.mem_ctrls0.rdPerTurnAround::total        33444                       # Reads before turning the bus around for writes
system.mem_ctrls0.wrPerTurnAround::samples        33444                       # Writes before turning the bus around for reads
system.mem_ctrls0.wrPerTurnAround::mean      5.566768                       # Writes before turning the bus around for reads
system.mem_ctrls0.wrPerTurnAround::gmean     5.428702                       # Writes before turning the bus around for reads
system.mem_ctrls0.wrPerTurnAround::stdev     1.547037                       # Writes before turning the bus around for reads
system.mem_ctrls0.wrPerTurnAround::4-7          30674     91.72%     91.72% # Writes before turning the bus around for reads
system.mem_ctrls0.wrPerTurnAround::8-11          2158      6.45%     98.17% # Writes before turning the bus around for reads
system.mem_ctrls0.wrPerTurnAround::12-15          499      1.49%     99.66% # Writes before turning the bus around for reads
system.mem_ctrls0.wrPerTurnAround::16-19          113      0.34%    100.00% # Writes before turning the bus around for reads
system.mem_ctrls0.wrPerTurnAround::total        33444                       # Writes before turning the bus around for reads
system.mem_ctrls0.totQLat                  8809580084                       # Total ticks spent queuing
system.mem_ctrls0.totMemAccLat            14991586334                       # Total ticks spent from burst creation until serviced by the DRAM
system.mem_ctrls0.totBusLat                1648535000                       # Total ticks spent in databus transfers
system.mem_ctrls0.avgQLat                    26719.42                       # Average queueing delay per DRAM burst
system.mem_ctrls0.avgBusLat                   5000.00                       # Average bus latency per DRAM burst
system.mem_ctrls0.avgMemAccLat               45469.42                       # Average memory access latency per DRAM burst
system.mem_ctrls0.avgRdBW                      189.46                       # Average DRAM read bandwidth in MiByte/s
system.mem_ctrls0.avgWrBW                      106.98                       # Average achieved write bandwidth in MiByte/s
system.mem_ctrls0.avgRdBWSys                   189.48                       # Average system read bandwidth in MiByte/s
system.mem_ctrls0.avgWrBWSys                   106.99                       # Average system write bandwidth in MiByte/s
system.mem_ctrls0.peakBW                     12800.00                       # Theoretical peak bandwidth in MiByte/s
system.mem_ctrls0.busUtil                        2.32                       # Data bus utilization in percentage
system.mem_ctrls0.busUtilRead                    1.48                       # Data bus utilization in percentage for reads
system.mem_ctrls0.busUtilWrite                   0.84                       # Data bus utilization in percentage for writes
system.mem_ctrls0.avgRdQLen                      1.56                       # Average read queue length when enqueuing
system.mem_ctrls0.avgWrQLen                      3.00                       # Average write queue length when enqueuing
system.mem_ctrls0.readRowHits                  244532                       # Number of row buffer hits during reads
system.mem_ctrls0.writeRowHits                 117359                       # Number of row buffer hits during writes
system.mem_ctrls0.readRowHitRate                74.17                       # Row buffer hit rate for reads
system.mem_ctrls0.writeRowHitRate               63.04                       # Row buffer hit rate for writes
system.mem_ctrls0.avgGap                    215874.30                       # Average gap between requests
system.mem_ctrls0.pageHitRate                   70.15                       # Row buffer hit rate, read and write combined
system.mem_ctrls0.memoryStateTime::IDLE   16969081500                       # Time in different power states
system.mem_ctrls0.memoryStateTime::REF     3718780000                       # Time in different power states
system.mem_ctrls0.memoryStateTime::PRE_PDN            0                       # Time in different power states
system.mem_ctrls0.memoryStateTime::ACT    90682984500                       # Time in different power states
system.mem_ctrls0.memoryStateTime::ACT_PDN            0                       # Time in different power states
system.mem_ctrls0.actEnergy::0              587464920                       # Energy for activate commands per rank (pJ)
system.mem_ctrls0.actEnergy::1              576578520                       # Energy for activate commands per rank (pJ)
system.mem_ctrls0.preEnergy::0              320541375                       # Energy for precharge commands per rank (pJ)
system.mem_ctrls0.preEnergy::1              314601375                       # Energy for precharge commands per rank (pJ)
system.mem_ctrls0.readEnergy::0            1290798600                       # Energy for read commands per rank (pJ)
system.mem_ctrls0.readEnergy::1            1280775600                       # Energy for read commands per rank (pJ)
system.mem_ctrls0.writeEnergy::0            604298880                       # Energy for write commands per rank (pJ)
system.mem_ctrls0.writeEnergy::1            602082720                       # Energy for write commands per rank (pJ)
system.mem_ctrls0.refreshEnergy::0         7273933680                       # Energy for refresh commands per rank (pJ)
system.mem_ctrls0.refreshEnergy::1         7273933680                       # Energy for refresh commands per rank (pJ)
system.mem_ctrls0.actBackEnergy::0        49805634420                       # Energy for active background per rank (pJ)
system.mem_ctrls0.actBackEnergy::1        49040131545                       # Energy for active background per rank (pJ)
system.mem_ctrls0.preBackEnergy::0        23131043250                       # Energy for precharge background per rank (pJ)
system.mem_ctrls0.preBackEnergy::1        23802537000                       # Energy for precharge background per rank (pJ)
system.mem_ctrls0.totalEnergy::0          83013715125                       # Total energy per rank (pJ)
system.mem_ctrls0.totalEnergy::1          82890640440                       # Total energy per rank (pJ)
system.mem_ctrls0.averagePower::0          745.406806                       # Core power per rank (mW)
system.mem_ctrls0.averagePower::1          744.301679                       # Core power per rank (mW)
system.mem_ctrls1.bytes_read::ruby.dir_cntrl1     20667648                       # Number of bytes read from this memory
system.mem_ctrls1.bytes_read::total          20667648                       # Number of bytes read from this memory
system.mem_ctrls1.bytes_written::ruby.dir_cntrl1     11494208                       # Number of bytes written to this memory
system.mem_ctrls1.bytes_written::total       11494208                       # Number of bytes written to this memory
system.mem_ctrls1.num_reads::ruby.dir_cntrl1       322932                       # Number of read requests responded to by this memory
system.mem_ctrls1.num_reads::total             322932                       # Number of read requests responded to by this memory
system.mem_ctrls1.num_writes::ruby.dir_cntrl1       179597                       # Number of write requests responded to by this memory
system.mem_ctrls1.num_writes::total            179597                       # Number of write requests responded to by this memory
system.mem_ctrls1.bw_read::ruby.dir_cntrl1    185569778                       # Total read bandwidth from this memory (bytes/s)
system.mem_ctrls1.bw_read::total            185569778                       # Total read bandwidth from this memory (bytes/s)
system.mem_ctrls1.bw_write::ruby.dir_cntrl1    103203694                       # Write bandwidth from this memory (bytes/s)
system.mem_ctrls1.bw_write::total           103203694                       # Write bandwidth from this memory (bytes/s)
system.mem_ctrls1.bw_total::ruby.dir_cntrl1    288773472                       # Total bandwidth to/from this memory (bytes/s)
system.mem_ctrls1.bw_total::total           288773472                       # Total bandwidth to/from this memory (bytes/s)
system.mem_ctrls1.readReqs                     322932                       # Number of read requests accepted
system.mem_ctrls1.writeReqs                    179597                       # Number of write requests accepted
system.mem_ctrls1.readBursts                   322932                       # Number of DRAM read bursts, including those serviced by the write queue
system.mem_ctrls1.writeBursts                  179597                       # Number of DRAM write bursts, including those merged in the write queue
system.mem_ctrls1.bytesReadDRAM              20665536                       # Total number of bytes read from DRAM
system.mem_ctrls1.bytesReadWrQ                   2112                       # Total number of bytes read from write queue
system.mem_ctrls1.bytesWritten               11493952                       # Total number of bytes written to DRAM
system.mem_ctrls1.bytesReadSys               20667648                       # Total read bytes from the system interface side
system.mem_ctrls1.bytesWrittenSys            11494208                       # Total written bytes from the system interface side
system.mem_ctrls1.servicedByWrQ                    33                       # Number of DRAM read bursts serviced by the write queue
system.mem_ctrls1.mergedWrBursts                    0                       # Number of DRAM write bursts merged with an existing one
system.mem_ctrls1.neitherReadNorWriteReqs            0                       # Number of requests that are neither read nor write
system.mem_ctrls1.perBankRdBursts::0            19874                       # Per bank write bursts
system.mem_ctrls1.perBankRdBursts::1            20567                       # Per bank write bursts
system.mem_ctrls1.perBankRdBursts::2            20116                       # Per bank write bursts
system.mem_ctrls1.perBankRdBursts::3            20409                       # Per bank write bursts
system.mem_ctrls1.perBankRdBursts::4            20106                       # Per bank write bursts
system.mem_ctrls1.perBankRdBursts::5            20547                       # Per bank write bursts
system.mem_ctrls1.perBankRdBursts::6            20235                       # Per bank write bursts
system.mem_ctrls1.perBankRdBursts::7            20371                       # Per bank write bursts
system.mem_ctrls1.perBankRdBursts::8            20255                       # Per bank write bursts
system.mem_ctrls1.perBankRdBursts::9            20435                       # Per bank write bursts
system.mem_ctrls1.perBankRdBursts::10           20150                       # Per bank write bursts
system.mem_ctrls1.perBankRdBursts::11           20434                       # Per bank write bursts
system.mem_ctrls1.perBankRdBursts::12           19803                       # Per bank write bursts
system.mem_ctrls1.perBankRdBursts::13           19713                       # Per bank write bursts
system.mem_ctrls1.perBankRdBursts::14           19929                       # Per bank write bursts
system.mem_ctrls1.perBankRdBursts::15           19955                       # Per bank write bursts
system.mem_ctrls1.perBankWrBursts::0            11109                       # Per bank write bursts
system.mem_ctrls1.perBankWrBursts::1            11258                       # Per bank write bursts
system.mem_ctrls1.perBankWrBursts::2            11281                       # Per bank write bursts
system.mem_ctrls1.perBankWrBursts::3            11246                       # Per bank write bursts
system.mem_ctrls1.perBankWrBursts::4            11215                       # Per bank write bursts
system.mem_ctrls1.perBankWrBursts::5            11517                       # Per bank write bursts
system.mem_ctrls1.perBankWrBursts::6            11137                       # Per bank write bursts
system.mem_ctrls1.perBankWrBursts::7            11264                       # Per bank write bursts
system.mem_ctrls1.perBankWrBursts::8            11490                       # Per bank write bursts
system.mem_ctrls1.perBankWrBursts::9            11310                       # Per bank write bursts
system.mem_ctrls1.perBankWrBursts::10           11130                       # Per bank write bursts
system.mem_ctrls1.perBankWrBursts::11           11293                       # Per bank write bursts
system.mem_ctrls1.perBankWrBursts::12           10952                       # Per bank write bursts
system.mem_ctrls1.perBankWrBursts::13           10908                       # Per bank write bursts
system.mem_ctrls1.perBankWrBursts::14           11291                       # Per bank write bursts
system.mem_ctrls1.perBankWrBursts::15           11192                       # Per bank write bursts
system.mem_ctrls1.numRdRetry                        0                       # Number of times read queue was full causing retry
system.mem_ctrls1.numWrRetry                      930                       # Number of times write queue was full causing retry
system.mem_ctrls1.totGap                 111373163500                       # Total gap between requests
system.mem_ctrls1.readPktSize::0                    0                       # Read request sizes (log2)
system.mem_ctrls1.readPktSize::1                    0                       # Read request sizes (log2)
system.mem_ctrls1.readPktSize::2                    0                       # Read request sizes (log2)
system.mem_ctrls1.readPktSize::3                    0                       # Read request sizes (log2)
system.mem_ctrls1.readPktSize::4                    0                       # Read request sizes (log2)
system.mem_ctrls1.readPktSize::5                    0                       # Read request sizes (log2)
system.mem_ctrls1.readPktSize::6               322932                       # Read request sizes (log2)
system.mem_ctrls1.writePktSize::0                   0                       # Write request sizes (log2)
system.mem_ctrls1.writePktSize::1                   0                       # Write request sizes (log2)
system.mem_ctrls1.writePktSize::2                   0                       # Write request sizes (log2)
system.mem_ctrls1.writePktSize::3                   0                       # Write request sizes (log2)
system.mem_ctrls1.writePktSize::4                   0                       # Write request sizes (log2)
system.mem_ctrls1.writePktSize::5                   0                       # Write request sizes (log2)
system.mem_ctrls1.writePktSize::6              179597                       # Write request sizes (log2)
system.mem_ctrls1.rdQLenPdf::0                 165094                       # What read queue length does an incoming req see
system.mem_ctrls1.rdQLenPdf::1                  47748                       # What read queue length does an incoming req see
system.mem_ctrls1.rdQLenPdf::2                  33612                       # What read queue length does an incoming req see
system.mem_ctrls1.rdQLenPdf::3                  22976                       # What read queue length does an incoming req see
system.mem_ctrls1.rdQLenPdf::4                  15538                       # What read queue length does an incoming req see
system.mem_ctrls1.rdQLenPdf::5                  11336                       # What read queue length does an incoming req see
system.mem_ctrls1.rdQLenPdf::6                   8080                       # What read queue length does an incoming req see
system.mem_ctrls1.rdQLenPdf::7                   5740                       # What read queue length does an incoming req see
system.mem_ctrls1.rdQLenPdf::8                   3920                       # What read queue length does an incoming req see
system.mem_ctrls1.rdQLenPdf::9                   2653                       # What read queue length does an incoming req see
system.mem_ctrls1.rdQLenPdf::10                  1830                       # What read queue length does an incoming req see
system.mem_ctrls1.rdQLenPdf::11                  1210                       # What read queue length does an incoming req see
system.mem_ctrls1.rdQLenPdf::12                   828                       # What read queue length does an incoming req see
system.mem_ctrls1.rdQLenPdf::13                   583                       # What read queue length does an incoming req see
system.mem_ctrls1.rdQLenPdf::14                   434                       # What read queue length does an incoming req see
system.mem_ctrls1.rdQLenPdf::15                   293                       # What read queue length does an incoming req see
system.mem_ctrls1.rdQLenPdf::16                   225                       # What read queue length does an incoming req see
system.mem_ctrls1.rdQLenPdf::17                   179                       # What read queue length does an incoming req see
system.mem_ctrls1.rdQLenPdf::18                   182                       # What read queue length does an incoming req see
system.mem_ctrls1.rdQLenPdf::19                   139                       # What read queue length does an incoming req see
system.mem_ctrls1.rdQLenPdf::20                   100                       # What read queue length does an incoming req see
system.mem_ctrls1.rdQLenPdf::21                    74                       # What read queue length does an incoming req see
system.mem_ctrls1.rdQLenPdf::22                    59                       # What read queue length does an incoming req see
system.mem_ctrls1.rdQLenPdf::23                    37                       # What read queue length does an incoming req see
system.mem_ctrls1.rdQLenPdf::24                    24                       # What read queue length does an incoming req see
system.mem_ctrls1.rdQLenPdf::25                     5                       # What read queue length does an incoming req see
system.mem_ctrls1.rdQLenPdf::26                     0                       # What read queue length does an incoming req see
system.mem_ctrls1.rdQLenPdf::27                     0                       # What read queue length does an incoming req see
system.mem_ctrls1.rdQLenPdf::28                     0                       # What read queue length does an incoming req see
system.mem_ctrls1.rdQLenPdf::29                     0                       # What read queue length does an incoming req see
system.mem_ctrls1.rdQLenPdf::30                     0                       # What read queue length does an incoming req see
system.mem_ctrls1.rdQLenPdf::31                     0                       # What read queue length does an incoming req see
system.mem_ctrls1.wrQLenPdf::0                  32220                       # What write queue length does an incoming req see
system.mem_ctrls1.wrQLenPdf::1                  34888                       # What write queue length does an incoming req see
system.mem_ctrls1.wrQLenPdf::2                  35495                       # What write queue length does an incoming req see
system.mem_ctrls1.wrQLenPdf::3                  35626                       # What write queue length does an incoming req see
system.mem_ctrls1.wrQLenPdf::4                  34998                       # What write queue length does an incoming req see
system.mem_ctrls1.wrQLenPdf::5                   2713                       # What write queue length does an incoming req see
system.mem_ctrls1.wrQLenPdf::6                   1679                       # What write queue length does an incoming req see
system.mem_ctrls1.wrQLenPdf::7                   1978                       # What write queue length does an incoming req see
system.mem_ctrls1.bytesPerActivate::samples       145352                       # Bytes accessed per row activation
system.mem_ctrls1.bytesPerActivate::mean   221.245418                       # Bytes accessed per row activation
system.mem_ctrls1.bytesPerActivate::gmean   169.880491                       # Bytes accessed per row activation
system.mem_ctrls1.bytesPerActivate::stdev   167.737578                       # Bytes accessed per row activation
system.mem_ctrls1.bytesPerActivate::0-127        41025     28.22%     28.22% # Bytes accessed per row activation
system.mem_ctrls1.bytesPerActivate::128-255        42043     28.92%     57.15% # Bytes accessed per row activation
system.mem_ctrls1.bytesPerActivate::256-383        45484     31.29%     88.44% # Bytes accessed per row activation
system.mem_ctrls1.bytesPerActivate::384-511         6943      4.78%     93.22% # Bytes accessed per row activation
system.mem_ctrls1.bytesPerActivate::512-639         5125      3.53%     96.74% # Bytes accessed per row activation
system.mem_ctrls1.bytesPerActivate::640-767         1698      1.17%     97.91% # Bytes accessed per row activation
system.mem_ctrls1.bytesPerActivate::768-895         1327      0.91%     98.83% # Bytes accessed per row activation
system.mem_ctrls1.bytesPerActivate::896-1023          746      0.51%     99.34% # Bytes accessed per row activation
system.mem_ctrls1.bytesPerActivate::1024-1151          961      0.66%    100.00% # Bytes accessed per row activation
system.mem_ctrls1.bytesPerActivate::total       145352                       # Bytes accessed per row activation
system.mem_ctrls1.rdPerTurnAround::samples        32303                       # Reads before turning the bus around for writes
system.mem_ctrls1.rdPerTurnAround::mean      9.994211                       # Reads before turning the bus around for writes
system.mem_ctrls1.rdPerTurnAround::stdev    20.390051                       # Reads before turning the bus around for writes
system.mem_ctrls1.rdPerTurnAround::0-127        32297     99.98%     99.98% # Reads before turning the bus around for writes
system.mem_ctrls1.rdPerTurnAround::128-255            4      0.01%     99.99% # Reads before turning the bus around for writes
system.mem_ctrls1.rdPerTurnAround::1152-1279            1      0.00%    100.00% # Reads before turning the bus around for writes
system.mem_ctrls1.rdPerTurnAround::2816-2943            1      0.00%    100.00% # Reads before turning the bus around for writes
system.mem_ctrls1.rdPerTurnAround::total        32303                       # Reads before turning the bus around for writes
system.mem_ctrls1.wrPerTurnAround::samples        32303                       # Writes before turning the bus around for reads
system.mem_ctrls1.wrPerTurnAround::mean      5.559638                       # Writes before turning the bus around for reads
system.mem_ctrls1.wrPerTurnAround::gmean     5.423194                       # Writes before turning the bus around for reads
system.mem_ctrls1.wrPerTurnAround::stdev     1.535404                       # Writes before turning the bus around for reads
system.mem_ctrls1.wrPerTurnAround::4-7          29638     91.75%     91.75% # Writes before turning the bus around for reads
system.mem_ctrls1.wrPerTurnAround::8-11          2084      6.45%     98.20% # Writes before turning the bus around for reads
system.mem_ctrls1.wrPerTurnAround::12-15          468      1.45%     99.65% # Writes before turning the bus around for reads
system.mem_ctrls1.wrPerTurnAround::16-19          113      0.35%    100.00% # Writes before turning the bus around for reads
system.mem_ctrls1.wrPerTurnAround::total        32303                       # Writes before turning the bus around for reads
system.mem_ctrls1.totQLat                  8411630109                       # Total ticks spent queuing
system.mem_ctrls1.totMemAccLat            14465986359                       # Total ticks spent from burst creation until serviced by the DRAM
system.mem_ctrls1.totBusLat                1614495000                       # Total ticks spent in databus transfers
system.mem_ctrls1.avgQLat                    26050.34                       # Average queueing delay per DRAM burst
system.mem_ctrls1.avgBusLat                   5000.00                       # Average bus latency per DRAM burst
system.mem_ctrls1.avgMemAccLat               44800.34                       # Average memory access latency per DRAM burst
system.mem_ctrls1.avgRdBW                      185.55                       # Average DRAM read bandwidth in MiByte/s
system.mem_ctrls1.avgWrBW                      103.20                       # Average achieved write bandwidth in MiByte/s
system.mem_ctrls1.avgRdBWSys                   185.57                       # Average system read bandwidth in MiByte/s
system.mem_ctrls1.avgWrBWSys                   103.20                       # Average system write bandwidth in MiByte/s
system.mem_ctrls1.peakBW                     12800.00                       # Theoretical peak bandwidth in MiByte/s
system.mem_ctrls1.busUtil                        2.26                       # Data bus utilization in percentage
system.mem_ctrls1.busUtilRead                    1.45                       # Data bus utilization in percentage for reads
system.mem_ctrls1.busUtilWrite                   0.81                       # Data bus utilization in percentage for writes
system.mem_ctrls1.avgRdQLen                      1.55                       # Average read queue length when enqueuing
system.mem_ctrls1.avgWrQLen                      3.01                       # Average write queue length when enqueuing
system.mem_ctrls1.readRowHits                  241178                       # Number of row buffer hits during reads
system.mem_ctrls1.writeRowHits                 115953                       # Number of row buffer hits during writes
system.mem_ctrls1.readRowHitRate                74.69                       # Row buffer hit rate for reads
system.mem_ctrls1.writeRowHitRate               64.56                       # Row buffer hit rate for writes
system.mem_ctrls1.avgGap                    221625.35                       # Average gap between requests
system.mem_ctrls1.pageHitRate                   71.07                       # Row buffer hit rate, read and write combined
system.mem_ctrls1.memoryStateTime::IDLE   17164189000                       # Time in different power states
system.mem_ctrls1.memoryStateTime::REF     3718780000                       # Time in different power states
system.mem_ctrls1.memoryStateTime::PRE_PDN            0                       # Time in different power states
system.mem_ctrls1.memoryStateTime::ACT    90484505500                       # Time in different power states
system.mem_ctrls1.memoryStateTime::ACT_PDN            0                       # Time in different power states
system.mem_ctrls1.actEnergy::0              556499160                       # Energy for activate commands per rank (pJ)
system.mem_ctrls1.actEnergy::1              542339280                       # Energy for activate commands per rank (pJ)
system.mem_ctrls1.preEnergy::0              303645375                       # Energy for precharge commands per rank (pJ)
system.mem_ctrls1.preEnergy::1              295919250                       # Energy for precharge commands per rank (pJ)
system.mem_ctrls1.readEnergy::0            1265253600                       # Energy for read commands per rank (pJ)
system.mem_ctrls1.readEnergy::1            1253187000                       # Energy for read commands per rank (pJ)
system.mem_ctrls1.writeEnergy::0            583374960                       # Energy for write commands per rank (pJ)
system.mem_ctrls1.writeEnergy::1            580387680                       # Energy for write commands per rank (pJ)
system.mem_ctrls1.refreshEnergy::0         7273933680                       # Energy for refresh commands per rank (pJ)
system.mem_ctrls1.refreshEnergy::1         7273933680                       # Energy for refresh commands per rank (pJ)
system.mem_ctrls1.actBackEnergy::0        49295726955                       # Energy for active background per rank (pJ)
system.mem_ctrls1.actBackEnergy::1        48297239145                       # Energy for active background per rank (pJ)
system.mem_ctrls1.preBackEnergy::0        23578330500                       # Energy for precharge background per rank (pJ)
system.mem_ctrls1.preBackEnergy::1        24454197000                       # Energy for precharge background per rank (pJ)
system.mem_ctrls1.totalEnergy::0          82856764230                       # Total energy per rank (pJ)
system.mem_ctrls1.totalEnergy::1          82697203035                       # Total energy per rank (pJ)
system.mem_ctrls1.averagePower::0          743.997494                       # Core power per rank (mW)
system.mem_ctrls1.averagePower::1          742.564742                       # Core power per rank (mW)
system.mem_ctrls2.bytes_read::ruby.dir_cntrl2     20677696                       # Number of bytes read from this memory
system.mem_ctrls2.bytes_read::total          20677696                       # Number of bytes read from this memory
system.mem_ctrls2.bytes_written::ruby.dir_cntrl2     11496256                       # Number of bytes written to this memory
system.mem_ctrls2.bytes_written::total       11496256                       # Number of bytes written to this memory
system.mem_ctrls2.num_reads::ruby.dir_cntrl2       323089                       # Number of read requests responded to by this memory
system.mem_ctrls2.num_reads::total             323089                       # Number of read requests responded to by this memory
system.mem_ctrls2.num_writes::ruby.dir_cntrl2       179629                       # Number of write requests responded to by this memory
system.mem_ctrls2.num_writes::total            179629                       # Number of write requests responded to by this memory
system.mem_ctrls2.bw_read::ruby.dir_cntrl2    185659997                       # Total read bandwidth from this memory (bytes/s)
system.mem_ctrls2.bw_read::total            185659997                       # Total read bandwidth from this memory (bytes/s)
system.mem_ctrls2.bw_write::ruby.dir_cntrl2    103222083                       # Write bandwidth from this memory (bytes/s)
system.mem_ctrls2.bw_write::total           103222083                       # Write bandwidth from this memory (bytes/s)
system.mem_ctrls2.bw_total::ruby.dir_cntrl2    288882079                       # Total bandwidth to/from this memory (bytes/s)
system.mem_ctrls2.bw_total::total           288882079                       # Total bandwidth to/from this memory (bytes/s)
system.mem_ctrls2.readReqs                     323089                       # Number of read requests accepted
system.mem_ctrls2.writeReqs                    179629                       # Number of write requests accepted
system.mem_ctrls2.readBursts                   323089                       # Number of DRAM read bursts, including those serviced by the write queue
system.mem_ctrls2.writeBursts                  179629                       # Number of DRAM write bursts, including those merged in the write queue
system.mem_ctrls2.bytesReadDRAM              20676736                       # Total number of bytes read from DRAM
system.mem_ctrls2.bytesReadWrQ                    960                       # Total number of bytes read from write queue
system.mem_ctrls2.bytesWritten               11496192                       # Total number of bytes written to DRAM
system.mem_ctrls2.bytesReadSys               20677696                       # Total read bytes from the system interface side
system.mem_ctrls2.bytesWrittenSys            11496256                       # Total written bytes from the system interface side
system.mem_ctrls2.servicedByWrQ                    15                       # Number of DRAM read bursts serviced by the write queue
system.mem_ctrls2.mergedWrBursts                    0                       # Number of DRAM write bursts merged with an existing one
system.mem_ctrls2.neitherReadNorWriteReqs            0                       # Number of requests that are neither read nor write
system.mem_ctrls2.perBankRdBursts::0            19895                       # Per bank write bursts
system.mem_ctrls2.perBankRdBursts::1            20566                       # Per bank write bursts
system.mem_ctrls2.perBankRdBursts::2            20130                       # Per bank write bursts
system.mem_ctrls2.perBankRdBursts::3            20501                       # Per bank write bursts
system.mem_ctrls2.perBankRdBursts::4            20120                       # Per bank write bursts
system.mem_ctrls2.perBankRdBursts::5            20526                       # Per bank write bursts
system.mem_ctrls2.perBankRdBursts::6            20216                       # Per bank write bursts
system.mem_ctrls2.perBankRdBursts::7            20356                       # Per bank write bursts
system.mem_ctrls2.perBankRdBursts::8            20240                       # Per bank write bursts
system.mem_ctrls2.perBankRdBursts::9            20448                       # Per bank write bursts
system.mem_ctrls2.perBankRdBursts::10           20170                       # Per bank write bursts
system.mem_ctrls2.perBankRdBursts::11           20498                       # Per bank write bursts
system.mem_ctrls2.perBankRdBursts::12           19830                       # Per bank write bursts
system.mem_ctrls2.perBankRdBursts::13           19687                       # Per bank write bursts
system.mem_ctrls2.perBankRdBursts::14           19916                       # Per bank write bursts
system.mem_ctrls2.perBankRdBursts::15           19975                       # Per bank write bursts
system.mem_ctrls2.perBankWrBursts::0            11110                       # Per bank write bursts
system.mem_ctrls2.perBankWrBursts::1            11249                       # Per bank write bursts
system.mem_ctrls2.perBankWrBursts::2            11282                       # Per bank write bursts
system.mem_ctrls2.perBankWrBursts::3            11266                       # Per bank write bursts
system.mem_ctrls2.perBankWrBursts::4            11210                       # Per bank write bursts
system.mem_ctrls2.perBankWrBursts::5            11497                       # Per bank write bursts
system.mem_ctrls2.perBankWrBursts::6            11147                       # Per bank write bursts
system.mem_ctrls2.perBankWrBursts::7            11278                       # Per bank write bursts
system.mem_ctrls2.perBankWrBursts::8            11465                       # Per bank write bursts
system.mem_ctrls2.perBankWrBursts::9            11319                       # Per bank write bursts
system.mem_ctrls2.perBankWrBursts::10           11112                       # Per bank write bursts
system.mem_ctrls2.perBankWrBursts::11           11316                       # Per bank write bursts
system.mem_ctrls2.perBankWrBursts::12           10959                       # Per bank write bursts
system.mem_ctrls2.perBankWrBursts::13           10911                       # Per bank write bursts
system.mem_ctrls2.perBankWrBursts::14           11296                       # Per bank write bursts
system.mem_ctrls2.perBankWrBursts::15           11211                       # Per bank write bursts
system.mem_ctrls2.numRdRetry                        0                       # Number of times read queue was full causing retry
system.mem_ctrls2.numWrRetry                     1058                       # Number of times write queue was full causing retry
system.mem_ctrls2.totGap                 111373856500                       # Total gap between requests
system.mem_ctrls2.readPktSize::0                    0                       # Read request sizes (log2)
system.mem_ctrls2.readPktSize::1                    0                       # Read request sizes (log2)
system.mem_ctrls2.readPktSize::2                    0                       # Read request sizes (log2)
system.mem_ctrls2.readPktSize::3                    0                       # Read request sizes (log2)
system.mem_ctrls2.readPktSize::4                    0                       # Read request sizes (log2)
system.mem_ctrls2.readPktSize::5                    0                       # Read request sizes (log2)
system.mem_ctrls2.readPktSize::6               323089                       # Read request sizes (log2)
system.mem_ctrls2.writePktSize::0                   0                       # Write request sizes (log2)
system.mem_ctrls2.writePktSize::1                   0                       # Write request sizes (log2)
system.mem_ctrls2.writePktSize::2                   0                       # Write request sizes (log2)
system.mem_ctrls2.writePktSize::3                   0                       # Write request sizes (log2)
system.mem_ctrls2.writePktSize::4                   0                       # Write request sizes (log2)
system.mem_ctrls2.writePktSize::5                   0                       # Write request sizes (log2)
system.mem_ctrls2.writePktSize::6              179629                       # Write request sizes (log2)
system.mem_ctrls2.rdQLenPdf::0                 165880                       # What read queue length does an incoming req see
system.mem_ctrls2.rdQLenPdf::1                  47395                       # What read queue length does an incoming req see
system.mem_ctrls2.rdQLenPdf::2                  33730                       # What read queue length does an incoming req see
system.mem_ctrls2.rdQLenPdf::3                  23193                       # What read queue length does an incoming req see
system.mem_ctrls2.rdQLenPdf::4                  15373                       # What read queue length does an incoming req see
system.mem_ctrls2.rdQLenPdf::5                  11212                       # What read queue length does an incoming req see
system.mem_ctrls2.rdQLenPdf::6                   8001                       # What read queue length does an incoming req see
system.mem_ctrls2.rdQLenPdf::7                   5566                       # What read queue length does an incoming req see
system.mem_ctrls2.rdQLenPdf::8                   3941                       # What read queue length does an incoming req see
system.mem_ctrls2.rdQLenPdf::9                   2686                       # What read queue length does an incoming req see
system.mem_ctrls2.rdQLenPdf::10                  1813                       # What read queue length does an incoming req see
system.mem_ctrls2.rdQLenPdf::11                  1187                       # What read queue length does an incoming req see
system.mem_ctrls2.rdQLenPdf::12                   765                       # What read queue length does an incoming req see
system.mem_ctrls2.rdQLenPdf::13                   583                       # What read queue length does an incoming req see
system.mem_ctrls2.rdQLenPdf::14                   375                       # What read queue length does an incoming req see
system.mem_ctrls2.rdQLenPdf::15                   283                       # What read queue length does an incoming req see
system.mem_ctrls2.rdQLenPdf::16                   218                       # What read queue length does an incoming req see
system.mem_ctrls2.rdQLenPdf::17                   208                       # What read queue length does an incoming req see
system.mem_ctrls2.rdQLenPdf::18                   189                       # What read queue length does an incoming req see
system.mem_ctrls2.rdQLenPdf::19                   136                       # What read queue length does an incoming req see
system.mem_ctrls2.rdQLenPdf::20                   111                       # What read queue length does an incoming req see
system.mem_ctrls2.rdQLenPdf::21                    91                       # What read queue length does an incoming req see
system.mem_ctrls2.rdQLenPdf::22                    58                       # What read queue length does an incoming req see
system.mem_ctrls2.rdQLenPdf::23                    36                       # What read queue length does an incoming req see
system.mem_ctrls2.rdQLenPdf::24                    26                       # What read queue length does an incoming req see
system.mem_ctrls2.rdQLenPdf::25                     8                       # What read queue length does an incoming req see
system.mem_ctrls2.rdQLenPdf::26                     6                       # What read queue length does an incoming req see
system.mem_ctrls2.rdQLenPdf::27                     2                       # What read queue length does an incoming req see
system.mem_ctrls2.rdQLenPdf::28                     1                       # What read queue length does an incoming req see
system.mem_ctrls2.rdQLenPdf::29                     1                       # What read queue length does an incoming req see
system.mem_ctrls2.rdQLenPdf::30                     0                       # What read queue length does an incoming req see
system.mem_ctrls2.rdQLenPdf::31                     0                       # What read queue length does an incoming req see
system.mem_ctrls2.wrQLenPdf::0                  32212                       # What write queue length does an incoming req see
system.mem_ctrls2.wrQLenPdf::1                  34639                       # What write queue length does an incoming req see
system.mem_ctrls2.wrQLenPdf::2                  35560                       # What write queue length does an incoming req see
system.mem_ctrls2.wrQLenPdf::3                  35673                       # What write queue length does an incoming req see
system.mem_ctrls2.wrQLenPdf::4                  34970                       # What write queue length does an incoming req see
system.mem_ctrls2.wrQLenPdf::5                   2713                       # What write queue length does an incoming req see
system.mem_ctrls2.wrQLenPdf::6                   1717                       # What write queue length does an incoming req see
system.mem_ctrls2.wrQLenPdf::7                   2145                       # What write queue length does an incoming req see
system.mem_ctrls2.bytesPerActivate::samples       145090                       # Bytes accessed per row activation
system.mem_ctrls2.bytesPerActivate::mean   221.738011                       # Bytes accessed per row activation
system.mem_ctrls2.bytesPerActivate::gmean   170.222486                       # Bytes accessed per row activation
system.mem_ctrls2.bytesPerActivate::stdev   167.981797                       # Bytes accessed per row activation
system.mem_ctrls2.bytesPerActivate::0-127        41000     28.26%     28.26% # Bytes accessed per row activation
system.mem_ctrls2.bytesPerActivate::128-255        41553     28.64%     56.90% # Bytes accessed per row activation
system.mem_ctrls2.bytesPerActivate::256-383        45672     31.48%     88.38% # Bytes accessed per row activation
system.mem_ctrls2.bytesPerActivate::384-511         6985      4.81%     93.19% # Bytes accessed per row activation
system.mem_ctrls2.bytesPerActivate::512-639         5095      3.51%     96.70% # Bytes accessed per row activation
system.mem_ctrls2.bytesPerActivate::640-767         1747      1.20%     97.91% # Bytes accessed per row activation
system.mem_ctrls2.bytesPerActivate::768-895         1316      0.91%     98.81% # Bytes accessed per row activation
system.mem_ctrls2.bytesPerActivate::896-1023          749      0.52%     99.33% # Bytes accessed per row activation
system.mem_ctrls2.bytesPerActivate::1024-1151          973      0.67%    100.00% # Bytes accessed per row activation
system.mem_ctrls2.bytesPerActivate::total       145090                       # Bytes accessed per row activation
system.mem_ctrls2.rdPerTurnAround::samples        32305                       # Reads before turning the bus around for writes
system.mem_ctrls2.rdPerTurnAround::mean      9.999443                       # Reads before turning the bus around for writes
system.mem_ctrls2.rdPerTurnAround::stdev    20.385756                       # Reads before turning the bus around for writes
system.mem_ctrls2.rdPerTurnAround::0-127        32300     99.98%     99.98% # Reads before turning the bus around for writes
system.mem_ctrls2.rdPerTurnAround::128-255            3      0.01%     99.99% # Reads before turning the bus around for writes
system.mem_ctrls2.rdPerTurnAround::1152-1279            1      0.00%    100.00% # Reads before turning the bus around for writes
system.mem_ctrls2.rdPerTurnAround::2816-2943            1      0.00%    100.00% # Reads before turning the bus around for writes
system.mem_ctrls2.rdPerTurnAround::total        32305                       # Reads before turning the bus around for writes
system.mem_ctrls2.wrPerTurnAround::samples        32305                       # Writes before turning the bus around for reads
system.mem_ctrls2.wrPerTurnAround::mean      5.560378                       # Writes before turning the bus around for reads
system.mem_ctrls2.wrPerTurnAround::gmean     5.421450                       # Writes before turning the bus around for reads
system.mem_ctrls2.wrPerTurnAround::stdev     1.557413                       # Writes before turning the bus around for reads
system.mem_ctrls2.wrPerTurnAround::4-7          29637     91.74%     91.74% # Writes before turning the bus around for reads
system.mem_ctrls2.wrPerTurnAround::8-11          2093      6.48%     98.22% # Writes before turning the bus around for reads
system.mem_ctrls2.wrPerTurnAround::12-15          433      1.34%     99.56% # Writes before turning the bus around for reads
system.mem_ctrls2.wrPerTurnAround::16-19          142      0.44%    100.00% # Writes before turning the bus around for reads
system.mem_ctrls2.wrPerTurnAround::total        32305                       # Writes before turning the bus around for reads
system.mem_ctrls2.totQLat                  8379387426                       # Total ticks spent queuing
system.mem_ctrls2.totMemAccLat            14437024926                       # Total ticks spent from burst creation until serviced by the DRAM
system.mem_ctrls2.totBusLat                1615370000                       # Total ticks spent in databus transfers
system.mem_ctrls2.avgQLat                    25936.43                       # Average queueing delay per DRAM burst
system.mem_ctrls2.avgBusLat                   5000.00                       # Average bus latency per DRAM burst
system.mem_ctrls2.avgMemAccLat               44686.43                       # Average memory access latency per DRAM burst
system.mem_ctrls2.avgRdBW                      185.65                       # Average DRAM read bandwidth in MiByte/s
system.mem_ctrls2.avgWrBW                      103.22                       # Average achieved write bandwidth in MiByte/s
system.mem_ctrls2.avgRdBWSys                   185.66                       # Average system read bandwidth in MiByte/s
system.mem_ctrls2.avgWrBWSys                   103.22                       # Average system write bandwidth in MiByte/s
system.mem_ctrls2.peakBW                     12800.00                       # Theoretical peak bandwidth in MiByte/s
system.mem_ctrls2.busUtil                        2.26                       # Data bus utilization in percentage
system.mem_ctrls2.busUtilRead                    1.45                       # Data bus utilization in percentage for reads
system.mem_ctrls2.busUtilWrite                   0.81                       # Data bus utilization in percentage for writes
system.mem_ctrls2.avgRdQLen                      1.54                       # Average read queue length when enqueuing
system.mem_ctrls2.avgWrQLen                      3.01                       # Average write queue length when enqueuing
system.mem_ctrls2.readRowHits                  241416                       # Number of row buffer hits during reads
system.mem_ctrls2.writeRowHits                 116186                       # Number of row buffer hits during writes
system.mem_ctrls2.readRowHitRate                74.72                       # Row buffer hit rate for reads
system.mem_ctrls2.writeRowHitRate               64.68                       # Row buffer hit rate for writes
system.mem_ctrls2.avgGap                    221543.40                       # Average gap between requests
system.mem_ctrls2.pageHitRate                   71.14                       # Row buffer hit rate, read and write combined
system.mem_ctrls2.memoryStateTime::IDLE   17179619250                       # Time in different power states
system.mem_ctrls2.memoryStateTime::REF     3718780000                       # Time in different power states
system.mem_ctrls2.memoryStateTime::PRE_PDN            0                       # Time in different power states
system.mem_ctrls2.memoryStateTime::ACT    90469131750                       # Time in different power states
system.mem_ctrls2.memoryStateTime::ACT_PDN            0                       # Time in different power states
system.mem_ctrls2.actEnergy::0              555327360                       # Energy for activate commands per rank (pJ)
system.mem_ctrls2.actEnergy::1              541515240                       # Energy for activate commands per rank (pJ)
system.mem_ctrls2.preEnergy::0              303006000                       # Energy for precharge commands per rank (pJ)
system.mem_ctrls2.preEnergy::1              295469625                       # Energy for precharge commands per rank (pJ)
system.mem_ctrls2.readEnergy::0            1265924400                       # Energy for read commands per rank (pJ)
system.mem_ctrls2.readEnergy::1            1253881200                       # Energy for read commands per rank (pJ)
system.mem_ctrls2.writeEnergy::0            583452720                       # Energy for write commands per rank (pJ)
system.mem_ctrls2.writeEnergy::1            580536720                       # Energy for write commands per rank (pJ)
system.mem_ctrls2.refreshEnergy::0         7273933680                       # Energy for refresh commands per rank (pJ)
system.mem_ctrls2.refreshEnergy::1         7273933680                       # Energy for refresh commands per rank (pJ)
system.mem_ctrls2.actBackEnergy::0        49214305305                       # Energy for active background per rank (pJ)
system.mem_ctrls2.actBackEnergy::1        48209866695                       # Energy for active background per rank (pJ)
system.mem_ctrls2.preBackEnergy::0        23649753000                       # Energy for precharge background per rank (pJ)
system.mem_ctrls2.preBackEnergy::1        24530839500                       # Energy for precharge background per rank (pJ)
system.mem_ctrls2.totalEnergy::0          82845702465                       # Total energy per rank (pJ)
system.mem_ctrls2.totalEnergy::1          82686042660                       # Total energy per rank (pJ)
system.mem_ctrls2.averagePower::0          743.898167                       # Core power per rank (mW)
system.mem_ctrls2.averagePower::1          742.464530                       # Core power per rank (mW)
system.mem_ctrls3.bytes_read::ruby.dir_cntrl3     20652096                       # Number of bytes read from this memory
system.mem_ctrls3.bytes_read::total          20652096                       # Number of bytes read from this memory
system.mem_ctrls3.bytes_written::ruby.dir_cntrl3     11491584                       # Number of bytes written to this memory
system.mem_ctrls3.bytes_written::total       11491584                       # Number of bytes written to this memory
system.mem_ctrls3.num_reads::ruby.dir_cntrl3       322689                       # Number of read requests responded to by this memory
system.mem_ctrls3.num_reads::total             322689                       # Number of read requests responded to by this memory
system.mem_ctrls3.num_writes::ruby.dir_cntrl3       179556                       # Number of write requests responded to by this memory
system.mem_ctrls3.num_writes::total            179556                       # Number of write requests responded to by this memory
system.mem_ctrls3.bw_read::ruby.dir_cntrl3    185430140                       # Total read bandwidth from this memory (bytes/s)
system.mem_ctrls3.bw_read::total            185430140                       # Total read bandwidth from this memory (bytes/s)
system.mem_ctrls3.bw_write::ruby.dir_cntrl3    103180134                       # Write bandwidth from this memory (bytes/s)
system.mem_ctrls3.bw_write::total           103180134                       # Write bandwidth from this memory (bytes/s)
system.mem_ctrls3.bw_total::ruby.dir_cntrl3    288610275                       # Total bandwidth to/from this memory (bytes/s)
system.mem_ctrls3.bw_total::total           288610275                       # Total bandwidth to/from this memory (bytes/s)
system.mem_ctrls3.readReqs                     322690                       # Number of read requests accepted
system.mem_ctrls3.writeReqs                    179556                       # Number of write requests accepted
system.mem_ctrls3.readBursts                   322690                       # Number of DRAM read bursts, including those serviced by the write queue
system.mem_ctrls3.writeBursts                  179556                       # Number of DRAM write bursts, including those merged in the write queue
system.mem_ctrls3.bytesReadDRAM              20651456                       # Total number of bytes read from DRAM
system.mem_ctrls3.bytesReadWrQ                    704                       # Total number of bytes read from write queue
system.mem_ctrls3.bytesWritten               11491456                       # Total number of bytes written to DRAM
system.mem_ctrls3.bytesReadSys               20652160                       # Total read bytes from the system interface side
system.mem_ctrls3.bytesWrittenSys            11491584                       # Total written bytes from the system interface side
system.mem_ctrls3.servicedByWrQ                    11                       # Number of DRAM read bursts serviced by the write queue
system.mem_ctrls3.mergedWrBursts                    0                       # Number of DRAM write bursts merged with an existing one
system.mem_ctrls3.neitherReadNorWriteReqs            0                       # Number of requests that are neither read nor write
system.mem_ctrls3.perBankRdBursts::0            19889                       # Per bank write bursts
system.mem_ctrls3.perBankRdBursts::1            20600                       # Per bank write bursts
system.mem_ctrls3.perBankRdBursts::2            20007                       # Per bank write bursts
system.mem_ctrls3.perBankRdBursts::3            20446                       # Per bank write bursts
system.mem_ctrls3.perBankRdBursts::4            20057                       # Per bank write bursts
system.mem_ctrls3.perBankRdBursts::5            20503                       # Per bank write bursts
system.mem_ctrls3.perBankRdBursts::6            20203                       # Per bank write bursts
system.mem_ctrls3.perBankRdBursts::7            20332                       # Per bank write bursts
system.mem_ctrls3.perBankRdBursts::8            20237                       # Per bank write bursts
system.mem_ctrls3.perBankRdBursts::9            20400                       # Per bank write bursts
system.mem_ctrls3.perBankRdBursts::10           20215                       # Per bank write bursts
system.mem_ctrls3.perBankRdBursts::11           20451                       # Per bank write bursts
system.mem_ctrls3.perBankRdBursts::12           19776                       # Per bank write bursts
system.mem_ctrls3.perBankRdBursts::13           19687                       # Per bank write bursts
system.mem_ctrls3.perBankRdBursts::14           19924                       # Per bank write bursts
system.mem_ctrls3.perBankRdBursts::15           19952                       # Per bank write bursts
system.mem_ctrls3.perBankWrBursts::0            11105                       # Per bank write bursts
system.mem_ctrls3.perBankWrBursts::1            11248                       # Per bank write bursts
system.mem_ctrls3.perBankWrBursts::2            11263                       # Per bank write bursts
system.mem_ctrls3.perBankWrBursts::3            11250                       # Per bank write bursts
system.mem_ctrls3.perBankWrBursts::4            11209                       # Per bank write bursts
system.mem_ctrls3.perBankWrBursts::5            11505                       # Per bank write bursts
system.mem_ctrls3.perBankWrBursts::6            11140                       # Per bank write bursts
system.mem_ctrls3.perBankWrBursts::7            11264                       # Per bank write bursts
system.mem_ctrls3.perBankWrBursts::8            11464                       # Per bank write bursts
system.mem_ctrls3.perBankWrBursts::9            11329                       # Per bank write bursts
system.mem_ctrls3.perBankWrBursts::10           11113                       # Per bank write bursts
system.mem_ctrls3.perBankWrBursts::11           11316                       # Per bank write bursts
system.mem_ctrls3.perBankWrBursts::12           10960                       # Per bank write bursts
system.mem_ctrls3.perBankWrBursts::13           10903                       # Per bank write bursts
system.mem_ctrls3.perBankWrBursts::14           11294                       # Per bank write bursts
system.mem_ctrls3.perBankWrBursts::15           11191                       # Per bank write bursts
system.mem_ctrls3.numRdRetry                        0                       # Number of times read queue was full causing retry
system.mem_ctrls3.numWrRetry                      906                       # Number of times write queue was full causing retry
system.mem_ctrls3.totGap                 111373254500                       # Total gap between requests
system.mem_ctrls3.readPktSize::0                    0                       # Read request sizes (log2)
system.mem_ctrls3.readPktSize::1                    0                       # Read request sizes (log2)
system.mem_ctrls3.readPktSize::2                    0                       # Read request sizes (log2)
system.mem_ctrls3.readPktSize::3                    0                       # Read request sizes (log2)
system.mem_ctrls3.readPktSize::4                    0                       # Read request sizes (log2)
system.mem_ctrls3.readPktSize::5                    0                       # Read request sizes (log2)
system.mem_ctrls3.readPktSize::6               322690                       # Read request sizes (log2)
system.mem_ctrls3.writePktSize::0                   0                       # Write request sizes (log2)
system.mem_ctrls3.writePktSize::1                   0                       # Write request sizes (log2)
system.mem_ctrls3.writePktSize::2                   0                       # Write request sizes (log2)
system.mem_ctrls3.writePktSize::3                   0                       # Write request sizes (log2)
system.mem_ctrls3.writePktSize::4                   0                       # Write request sizes (log2)
system.mem_ctrls3.writePktSize::5                   0                       # Write request sizes (log2)
system.mem_ctrls3.writePktSize::6              179556                       # Write request sizes (log2)
system.mem_ctrls3.rdQLenPdf::0                 166443                       # What read queue length does an incoming req see
system.mem_ctrls3.rdQLenPdf::1                  46614                       # What read queue length does an incoming req see
system.mem_ctrls3.rdQLenPdf::2                  34698                       # What read queue length does an incoming req see
system.mem_ctrls3.rdQLenPdf::3                  22755                       # What read queue length does an incoming req see
system.mem_ctrls3.rdQLenPdf::4                  15553                       # What read queue length does an incoming req see
system.mem_ctrls3.rdQLenPdf::5                  11089                       # What read queue length does an incoming req see
system.mem_ctrls3.rdQLenPdf::6                   7995                       # What read queue length does an incoming req see
system.mem_ctrls3.rdQLenPdf::7                   5558                       # What read queue length does an incoming req see
system.mem_ctrls3.rdQLenPdf::8                   3640                       # What read queue length does an incoming req see
system.mem_ctrls3.rdQLenPdf::9                   2586                       # What read queue length does an incoming req see
system.mem_ctrls3.rdQLenPdf::10                  1677                       # What read queue length does an incoming req see
system.mem_ctrls3.rdQLenPdf::11                  1158                       # What read queue length does an incoming req see
system.mem_ctrls3.rdQLenPdf::12                   753                       # What read queue length does an incoming req see
system.mem_ctrls3.rdQLenPdf::13                   564                       # What read queue length does an incoming req see
system.mem_ctrls3.rdQLenPdf::14                   401                       # What read queue length does an incoming req see
system.mem_ctrls3.rdQLenPdf::15                   268                       # What read queue length does an incoming req see
system.mem_ctrls3.rdQLenPdf::16                   207                       # What read queue length does an incoming req see
system.mem_ctrls3.rdQLenPdf::17                   180                       # What read queue length does an incoming req see
system.mem_ctrls3.rdQLenPdf::18                   150                       # What read queue length does an incoming req see
system.mem_ctrls3.rdQLenPdf::19                   132                       # What read queue length does an incoming req see
system.mem_ctrls3.rdQLenPdf::20                    91                       # What read queue length does an incoming req see
system.mem_ctrls3.rdQLenPdf::21                    78                       # What read queue length does an incoming req see
system.mem_ctrls3.rdQLenPdf::22                    49                       # What read queue length does an incoming req see
system.mem_ctrls3.rdQLenPdf::23                    24                       # What read queue length does an incoming req see
system.mem_ctrls3.rdQLenPdf::24                    11                       # What read queue length does an incoming req see
[...]
system.ruby.L2Cache_Controller.I_I.Ack_all::total        15094                      
system.ruby.L2Cache_Controller.S_I.Ack   |           0      0.00%      0.00% |           0      0.00%      0.00% |           0      0.00%      0.00% |           0      0.00%      0.00% |           0      0.00%      0.00% |           0      0.00%      0.00% |           0      0.00%      0.00% |           0      0.00%      0.00% |           0      0.00%      0.00% |           0      0.00%      0.00% |           0      0.00%      0.00% |           0      0.00%      0.00% |           0      0.00%      0.00% |           0      0.00%      0.00% |           0      0.00%      0.00% |           0      0.00%      0.00% |           0      0.00%      0.00% |           0      0.00%      0.00% |           0      0.00%      0.00% |           0      0.00%      0.00% |           0      0.00%      0.00% |           0      0.00%      0.00% |           0      0.00%      0.00% |           0      0.00%      0.00% |           0      0.00%      0.00% |           2    100.00%    100.00% |           0      0.00%    100.00% |           0      0.00%    100.00% |           0      0.00%    100.00% |           0      0.00%    100.00% |           0      0.00%    100.00% |           0      0.00%    100.00%
system.ruby.L2Cache_Controller.S_I.Ack::total            2                      
system.ruby.L2Cache_Controller.S_I.Ack_all |           0      0.00%      0.00% |           2     11.11%     11.11% |           1      5.56%     16.67% |           1      5.56%     22.22% |           1      5.56%     27.78% |           2     11.11%     38.89% |           1      5.56%     44.44% |           0      0.00%     44.44% |           0      0.00%     44.44% |           1      5.56%     50.00% |           1      5.56%     55.56% |           0      0.00%     55.56% |           1      5.56%     61.11% |           0      0.00%     61.11% |           1      5.56%     66.67% |           0      0.00%     66.67% |           0      0.00%     66.67% |           0      0.00%     66.67% |           1      5.56%     72.22% |           0      0.00%     72.22% |           0      0.00%     72.22% |           0      0.00%     72.22% |           0      0.00%     72.22% |           0      0.00%     72.22% |           1      5.56%     77.78% |           3     16.67%     94.44% |           0      0.00%     94.44% |           0      0.00%     94.44% |           0      0.00%     94.44% |           0      0.00%     94.44% |           0      0.00%     94.44% |           1      5.56%    100.00%
system.ruby.L2Cache_Controller.S_I.Ack_all::total           18                      
system.ruby.L2Cache_Controller.ISS.Mem_Data |       24651      4.24%      4.24% |       17966      3.09%      7.34% |       18031      3.10%     10.44% |       17963      3.09%     13.54% |       17949      3.09%     16.63% |       17953      3.09%     19.72% |       17934      3.09%     22.81% |       17937      3.09%     25.89% |       17963      3.09%     28.99% |       17963      3.09%     32.08% |       18044      3.11%     35.19% |       17919      3.09%     38.27% |       17942      3.09%     41.36% |       17956      3.09%     44.45% |       17959      3.09%     47.55% |       17892      3.08%     50.63% |       17899      3.08%     53.71% |       17880      3.08%     56.79% |       17918      3.09%     59.87% |       17894      3.08%     62.95% |       17931      3.09%     66.04% |       17965      3.09%     69.14% |       17987      3.10%     72.23% |       17889      3.08%     75.31% |       17915      3.08%     78.40% |       17916      3.08%     81.48% |       17919      3.09%     84.57% |       17872      3.08%     87.64% |       17942      3.09%     90.73% |       17894      3.08%     93.82% |       17899      3.08%     96.90% |       18018      3.10%    100.00%
system.ruby.L2Cache_Controller.ISS.Mem_Data::total       580760                      
system.ruby.L2Cache_Controller.IS.Mem_Data |         485      3.21%      3.21% |         424      2.81%      6.02% |         447      2.96%      8.98% |         430      2.85%     11.83% |         435      2.88%     14.71% |         417      2.76%     17.48% |         435      2.88%     20.36% |         483      3.20%     23.56% |         465      3.08%     26.64% |         460      3.05%     29.69% |         478      3.17%     32.85% |         473      3.13%     35.99% |         513      3.40%     39.39% |         497      3.29%     42.68% |         489      3.24%     45.92% |         494      3.27%     49.19% |         513      3.40%     52.59% |         509      3.37%     55.96% |         500      3.31%     59.28% |         473      3.13%     62.41% |         450      2.98%     65.39% |         490      3.25%     68.64% |         451      2.99%     71.62% |         458      3.03%     74.66% |         489      3.24%     77.90% |         524      3.47%     81.37% |         501      3.32%     84.69% |         448      2.97%     87.66% |         472      3.13%     90.78% |         475      3.15%     93.93% |         474      3.14%     97.07% |         442      2.93%    100.00%
system.ruby.L2Cache_Controller.IS.Mem_Data::total        15094                      
system.ruby.L2Cache_Controller.IM.Mem_Data |       22017      3.13%      3.13% |       21951      3.12%      6.26% |       21955      3.12%      9.38% |       21960      3.13%     12.51% |       21940      3.12%     15.63% |       21951      3.12%     18.76% |       21951      3.12%     21.88% |       21943      3.12%     25.00% |       21963      3.13%     28.13% |       21954      3.12%     31.25% |       21938      3.12%     34.38% |       21963      3.13%     37.50% |       21951      3.12%     40.63% |       21943      3.12%     43.75% |       21941      3.12%     46.87% |       21941      3.12%     50.00% |       21950      3.12%     53.12% |       21961      3.13%     56.25% |       21958      3.13%     59.37% |       21950      3.12%     62.50% |       21972      3.13%     65.62% |       21981      3.13%     68.75% |       21944      3.12%     71.88% |       21950      3.12%     75.00% |       21960      3.13%     78.13% |       21950      3.12%     81.25% |       21964      3.13%     84.38% |       21951      3.12%     87.50% |       21947      3.12%     90.62% |       21952      3.12%     93.75% |       21972      3.13%     96.88% |       21946      3.12%    100.00%
system.ruby.L2Cache_Controller.IM.Mem_Data::total       702570                      
system.ruby.L2Cache_Controller.SS_MB.Exclusive_Unblock |           2      4.35%      4.35% |           4      8.70%     13.04% |           6     13.04%     26.09% |           5     10.87%     36.96% |           1      2.17%     39.13% |           0      0.00%     39.13% |           0      0.00%     39.13% |           0      0.00%     39.13% |           0      0.00%     39.13% |           1      2.17%     41.30% |           1      2.17%     43.48% |           0      0.00%     43.48% |           4      8.70%     52.17% |           0      0.00%     52.17% |           5     10.87%     63.04% |           0      0.00%     63.04% |           0      0.00%     63.04% |           0      0.00%     63.04% |           9     19.57%     82.61% |           2      4.35%     86.96% |           0      0.00%     86.96% |           0      0.00%     86.96% |           0      0.00%     86.96% |           0      0.00%     86.96% |           1      2.17%     89.13% |           0      0.00%     89.13% |           1      2.17%     91.30% |           1      2.17%     93.48% |           2      4.35%     97.83% |           0      0.00%     97.83% |           1      2.17%    100.00% |           0      0.00%    100.00%
system.ruby.L2Cache_Controller.SS_MB.Exclusive_Unblock::total           46                      
system.ruby.L2Cache_Controller.MT_MB.L1_PUTX |           1      3.12%      3.12% |           0      0.00%      3.12% |           3      9.38%     12.50% |           0      0.00%     12.50% |           0      0.00%     12.50% |           3      9.38%     21.88% |           0      0.00%     21.88% |           2      6.25%     28.12% |           1      3.12%     31.25% |           1      3.12%     34.38% |           0      0.00%     34.38% |           1      3.12%     37.50% |           1      3.12%     40.62% |           0      0.00%     40.62% |           3      9.38%     50.00% |           1      3.12%     53.12% |           0      0.00%     53.12% |           0      0.00%     53.12% |           0      0.00%     53.12% |           0      0.00%     53.12% |           1      3.12%     56.25% |           1      3.12%     59.38% |           1      3.12%     62.50% |           1      3.12%     65.62% |           1      3.12%     68.75% |           0      0.00%     68.75% |           1      3.12%     71.88% |           1      3.12%     75.00% |           5     15.62%     90.62% |           0      0.00%     90.62% |           2      6.25%     96.88% |           1      3.12%    100.00%
system.ruby.L2Cache_Controller.MT_MB.L1_PUTX::total           32                      
system.ruby.L2Cache_Controller.MT_MB.L1_PUTX_old |           0      0.00%      0.00% |           0      0.00%      0.00% |           0      0.00%      0.00% |           0      0.00%      0.00% |           0      0.00%      0.00% |           0      0.00%      0.00% |           0      0.00%      0.00% |           0      0.00%      0.00% |           0      0.00%      0.00% |           0      0.00%      0.00% |           0      0.00%      0.00% |           0      0.00%      0.00% |           0      0.00%      0.00% |           1    100.00%    100.00% |           0      0.00%    100.00% |           0      0.00%    100.00% |           0      0.00%    100.00% |           0      0.00%    100.00% |           0      0.00%    100.00% |           0      0.00%    100.00% |           0      0.00%    100.00% |           0      0.00%    100.00% |           0      0.00%    100.00% |           0      0.00%    100.00% |           0      0.00%    100.00% |           0      0.00%    100.00% |           0      0.00%    100.00% |           0      0.00%    100.00% |           0      0.00%    100.00% |           0      0.00%    100.00% |           0      0.00%    100.00% |           0      0.00%    100.00%
system.ruby.L2Cache_Controller.MT_MB.L1_PUTX_old::total            1                      
system.ruby.L2Cache_Controller.MT_MB.Exclusive_Unblock |      155646      5.61%      5.61% |       85408      3.08%      8.69% |       84010      3.03%     11.72% |       84939      3.06%     14.79% |       84140      3.03%     17.82% |       83718      3.02%     20.84% |       83711      3.02%     23.86% |       83385      3.01%     26.87% |       83574      3.01%     29.88% |       84585      3.05%     32.93% |       85889      3.10%     36.03% |       85040      3.07%     39.10% |       84687      3.05%     42.15% |       83422      3.01%     45.16% |       82850      2.99%     48.15% |       83199      3.00%     51.15% |       84253      3.04%     54.19% |       83763      3.02%     57.21% |       84327      3.04%     60.25% |       84416      3.04%     63.30% |       84330      3.04%     66.34% |       86768      3.13%     69.47% |       84611      3.05%     72.52% |       83727      3.02%     75.54% |       83889      3.03%     78.57% |       84305      3.04%     81.61% |       83969      3.03%     84.64% |       83618      3.02%     87.65% |       84175      3.04%     90.69% |       83654      3.02%     93.71% |       86382      3.12%     96.82% |       88129      3.18%    100.00%
system.ruby.L2Cache_Controller.MT_MB.Exclusive_Unblock::total      2772519                      
system.ruby.L2Cache_Controller.MT_IIB.WB_Data |           0      0.00%      0.00% |           0      0.00%      0.00% |           0      0.00%      0.00% |           0      0.00%      0.00% |           0      0.00%      0.00% |           0      0.00%      0.00% |           0      0.00%      0.00% |           0      0.00%      0.00% |           0      0.00%      0.00% |           0      0.00%      0.00% |           0      0.00%      0.00% |           0      0.00%      0.00% |           0      0.00%      0.00% |           0      0.00%      0.00% |           0      0.00%      0.00% |           0      0.00%      0.00% |           0      0.00%      0.00% |           0      0.00%      0.00% |           0      0.00%      0.00% |           0      0.00%      0.00% |           0      0.00%      0.00% |           0      0.00%      0.00% |           0      0.00%      0.00% |           0      0.00%      0.00% |           0      0.00%      0.00% |           2    100.00%    100.00% |           0      0.00%    100.00% |           0      0.00%    100.00% |           0      0.00%    100.00% |           0      0.00%    100.00% |           0      0.00%    100.00% |           0      0.00%    100.00%
system.ruby.L2Cache_Controller.MT_IIB.WB_Data::total            2                      
system.ruby.L2Cache_Controller.MT_SB.Unblock |           0      0.00%      0.00% |           0      0.00%      0.00% |           0      0.00%      0.00% |           0      0.00%      0.00% |           0      0.00%      0.00% |           0      0.00%      0.00% |           0      0.00%      0.00% |           0      0.00%      0.00% |           0      0.00%      0.00% |           0      0.00%      0.00% |           0      0.00%      0.00% |           0      0.00%      0.00% |           0      0.00%      0.00% |           0      0.00%      0.00% |           0      0.00%      0.00% |           0      0.00%      0.00% |           0      0.00%      0.00% |           0      0.00%      0.00% |           0      0.00%      0.00% |           0      0.00%      0.00% |           0      0.00%      0.00% |           0      0.00%      0.00% |           0      0.00%      0.00% |           0      0.00%      0.00% |           0      0.00%      0.00% |           2    100.00%    100.00% |           0      0.00%    100.00% |           0      0.00%    100.00% |           0      0.00%    100.00% |           0      0.00%    100.00% |           0      0.00%    100.00% |           0      0.00%    100.00%
system.ruby.L2Cache_Controller.MT_SB.Unblock::total            2                      
system.ruby.SimicsNetworkPortInterface_Controller.MessageSend |      435352     21.37%     21.37% |     1018510     50.00%     71.37% |      583158     28.63%    100.00% |           0      0.00%    100.00% |           0      0.00%    100.00% |           0      0.00%    100.00% |           0      0.00%    100.00% |           0      0.00%    100.00% |           0      0.00%    100.00% |           0      0.00%    100.00% |           0      0.00%    100.00% |           0      0.00%    100.00% |           0      0.00%    100.00% |           0      0.00%    100.00% |           0      0.00%    100.00% |           0      0.00%    100.00% |           0      0.00%    100.00% |           0      0.00%    100.00% |           0      0.00%    100.00% |           0      0.00%    100.00% |           0      0.00%    100.00% |           0      0.00%    100.00% |           0      0.00%    100.00% |           0      0.00%    100.00% |           0      0.00%    100.00% |           0      0.00%    100.00% |           0      0.00%    100.00% |           0      0.00%    100.00% |           0      0.00%    100.00% |           0      0.00%    100.00% |           0      0.00%    100.00% |           0      0.00%    100.00%
system.ruby.SimicsNetworkPortInterface_Controller.MessageSend::total      2037020                      
system.ruby.SimicsNetworkPortInterface_Controller.MessageRecv |      435352     21.37%     21.37% |     1018510     50.00%     71.37% |      583158     28.63%    100.00% |           0      0.00%    100.00% |           0      0.00%    100.00% |           0      0.00%    100.00% |           0      0.00%    100.00% |           0      0.00%    100.00% |           0      0.00%    100.00% |           0      0.00%    100.00% |           0      0.00%    100.00% |           0      0.00%    100.00% |           0      0.00%    100.00% |           0      0.00%    100.00% |           0      0.00%    100.00% |           0      0.00%    100.00% |           0      0.00%    100.00% |           0      0.00%    100.00% |           0      0.00%    100.00% |           0      0.00%    100.00% |           0      0.00%    100.00% |           0      0.00%    100.00% |           0      0.00%    100.00% |           0      0.00%    100.00% |           0      0.00%    100.00% |           0      0.00%    100.00% |           0      0.00%    100.00% |           0      0.00%    100.00% |           0      0.00%    100.00% |           0      0.00%    100.00% |           0      0.00%    100.00% |           0      0.00%    100.00%
system.ruby.SimicsNetworkPortInterface_Controller.MessageRecv::total      2037020                      
system.ruby.SimicsNetworkPortInterface_Controller.A.MessageSend |      435352     21.37%     21.37% |     1018510     50.00%     71.37% |      583158     28.63%    100.00% |           0      0.00%    100.00% |           0      0.00%    100.00% |           0      0.00%    100.00% |           0      0.00%    100.00% |           0      0.00%    100.00% |           0      0.00%    100.00% |           0      0.00%    100.00% |           0      0.00%    100.00% |           0      0.00%    100.00% |           0      0.00%    100.00% |           0      0.00%    100.00% |           0      0.00%    100.00% |           0      0.00%    100.00% |           0      0.00%    100.00% |           0      0.00%    100.00% |           0      0.00%    100.00% |           0      0.00%    100.00% |           0      0.00%    100.00% |           0      0.00%    100.00% |           0      0.00%    100.00% |           0      0.00%    100.00% |           0      0.00%    100.00% |           0      0.00%    100.00% |           0      0.00%    100.00% |           0      0.00%    100.00% |           0      0.00%    100.00% |           0      0.00%    100.00% |           0      0.00%    100.00% |           0      0.00%    100.00%
system.ruby.SimicsNetworkPortInterface_Controller.A.MessageSend::total      2037020                      
system.ruby.SimicsNetworkPortInterface_Controller.A.MessageRecv |      435352     21.37%     21.37% |     1018510     50.00%     71.37% |      583158     28.63%    100.00% |           0      0.00%    100.00% |           0      0.00%    100.00% |           0      0.00%    100.00% |           0      0.00%    100.00% |           0      0.00%    100.00% |           0      0.00%    100.00% |           0      0.00%    100.00% |           0      0.00%    100.00% |           0      0.00%    100.00% |           0      0.00%    100.00% |           0      0.00%    100.00% |           0      0.00%    100.00% |           0      0.00%    100.00% |           0      0.00%    100.00% |           0      0.00%    100.00% |           0      0.00%    100.00% |           0      0.00%    100.00% |           0      0.00%    100.00% |           0      0.00%    100.00% |           0      0.00%    100.00% |           0      0.00%    100.00% |           0      0.00%    100.00% |           0      0.00%    100.00% |           0      0.00%    100.00% |           0      0.00%    100.00% |           0      0.00%    100.00% |           0      0.00%    100.00% |           0      0.00%    100.00% |           0      0.00%    100.00%
system.ruby.SimicsNetworkPortInterface_Controller.A.MessageRecv::total      2037020                      
system.switch_cpus.kern.inst.arm                    0                       # number of arm instructions executed
system.switch_cpus.kern.inst.quiesce                0                       # number of quiesce instructions executed

---------- End Simulation Statistics   ----------
