
---------- Begin Simulation Statistics ----------
sim_seconds                                  0.111377                       # Number of seconds simulated
sim_ticks                                111377105500                       # Number of ticks simulated
final_tick                               5287545184000                       # Number of ticks from beginning of simulation (restored from checkpoints and never reset)
sim_freq                                 1000000000000                       # Frequency of simulated ticks
host_inst_rate                                  36629                       # Simulator instruction rate (inst/s)
host_op_rate                                    62019                       # Simulator op (including micro ops) rate (op/s)
host_tick_rate                               63831823                       # Simulator tick rate (ticks/s)
host_mem_usage                                5499108                       # Number of bytes of host memory used
host_seconds                                  1744.85                       # Real time elapsed on the host
sim_insts                                    63912987                       # Number of instructions simulated
sim_ops                                     108214374                       # Number of ops (including micro ops) simulated
system.voltage_domain.voltage                       1                       # Voltage in Volts
system.clk_domain.clock                           500                       # Clock period in ticks
system.mem_ctrls0.bytes_read::ruby.dir_cntrl0     21103232                       # Number of bytes read from this memory
system.mem_ctrls0.bytes_read::total          21103232                       # Number of bytes read from this memory
system.mem_ctrls0.bytes_written::ruby.dir_cntrl0     11915456                       # Number of bytes written to this memory
system.mem_ctrls0.bytes_written::total       11915456                       # Number of bytes written to this memory
system.mem_ctrls0.num_reads::ruby.dir_cntrl0       329738                       # Number of read requests responded to by this memory
system.mem_ctrls0.num_reads::total             329738                       # Number of read requests responded to by this memory
system.mem_ctrls0.num_writes::ruby.dir_cntrl0       186179                       # Number of write requests responded to by this memory
system.mem_ctrls0.num_writes::total            186179                       # Number of write requests responded to by this memory
system.mem_ctrls0.bw_read::ruby.dir_cntrl0    189475493                       # Total read bandwidth from this memory (bytes/s)
system.mem_ctrls0.bw_read::total            189475493                       # Total read bandwidth from this memory (bytes/s)
system.mem_ctrls0.bw_write::ruby.dir_cntrl0    106982992                       # Write bandwidth from this memory (bytes/s)
system.mem_ctrls0.bw_write::total           106982992                       # Write bandwidth from this memory (bytes/s)
system.mem_ctrls0.bw_total::ruby.dir_cntrl0    296458485                       # Total bandwidth to/from this memory (bytes/s)
system.mem_ctrls0.bw_total::total           296458485                       # Total bandwidth to/from this memory (bytes/s)
system.mem_ctrls0.readReqs                     329738                       # Number of read requests accepted
system.mem_ctrls0.writeReqs                    186179                       # Number of write requests accepted
system.mem_ctrls0.readBursts                   329738                       # Number of DRAM read bursts, including those serviced by the write queue
system.mem_ctrls0.writeBursts                  186179                       # Number of DRAM write bursts, including those merged in the write queue
system.mem_ctrls0.bytesReadDRAM              21101120                       # Total number of bytes read from DRAM
system.mem_ctrls0.bytesReadWrQ                   2112                       # Total number of bytes read from write queue
system.mem_ctrls0.bytesWritten               11915200                       # Total number of bytes written to DRAM
system.mem_ctrls0.bytesReadSys               21103232                       # Total read bytes from the system interface side
system.mem_ctrls0.bytesWrittenSys            11915456                       # Total written bytes from the system interface side
system.mem_ctrls0.servicedByWrQ                    33                       # Number of DRAM read bursts serviced by the write queue
system.mem_ctrls0.mergedWrBursts                    0                       # Number of DRAM write bursts merged with an existing one
system.mem_ctrls0.neitherReadNorWriteReqs            0                       # Number of requests that are neither read nor write
system.mem_ctrls0.perBankRdBursts::0            20283                       # Per bank write bursts
system.mem_ctrls0.perBankRdBursts::1            21014                       # Per bank write bursts
system.mem_ctrls0.perBankRdBursts::2            20511                       # Per bank write bursts
system.mem_ctrls0.perBankRdBursts::3            20823                       # Per bank write bursts
system.mem_ctrls0.perBankRdBursts::4            20511                       # Per bank write bursts
system.mem_ctrls0.perBankRdBursts::5            20988                       # Per bank write bursts
system.mem_ctrls0.perBankRdBursts::6            20638                       # Per bank write bursts
system.mem_ctrls0.perBankRdBursts::7            20730                       # Per bank write bursts
system.mem_ctrls0.perBankRdBursts::8            20678                       # Per bank write bursts
system.mem_ctrls0.perBankRdBursts::9            20855                       # Per bank write bursts
system.mem_ctrls0.perBankRdBursts::10           20612                       # Per bank write bursts
system.mem_ctrls0.perBankRdBursts::11           20892                       # Per bank write bursts
system.mem_ctrls0.perBankRdBursts::12           20231                       # Per bank write bursts
system.mem_ctrls0.perBankRdBursts::13           20141                       # Per bank write bursts
system.mem_ctrls0.perBankRdBursts::14           20445                       # Per bank write bursts
system.mem_ctrls0.perBankRdBursts::15           20353                       # Per bank write bursts
system.mem_ctrls0.perBankWrBursts::0            11510                       # Per bank write bursts
system.mem_ctrls0.perBankWrBursts::1            11662                       # Per bank write bursts
system.mem_ctrls0.perBankWrBursts::2            11658                       # Per bank write bursts
system.mem_ctrls0.perBankWrBursts::3            11650                       # Per bank write bursts
system.mem_ctrls0.perBankWrBursts::4            11610                       # Per bank write bursts
system.mem_ctrls0.perBankWrBursts::5            11920                       # Per bank write bursts
system.mem_ctrls0.perBankWrBursts::6            11561                       # Per bank write bursts
system.mem_ctrls0.perBankWrBursts::7            11686                       # Per bank write bursts
system.mem_ctrls0.perBankWrBursts::8            11903                       # Per bank write bursts
system.mem_ctrls0.perBankWrBursts::9            11747                       # Per bank write bursts
system.mem_ctrls0.perBankWrBursts::10           11536                       # Per bank write bursts
system.mem_ctrls0.perBankWrBursts::11           11711                       # Per bank write bursts
system.mem_ctrls0.perBankWrBursts::12           11350                       # Per bank write bursts
system.mem_ctrls0.perBankWrBursts::13           11315                       # Per bank write bursts
system.mem_ctrls0.perBankWrBursts::14           11755                       # Per bank write bursts
system.mem_ctrls0.perBankWrBursts::15           11601                       # Per bank write bursts
system.mem_ctrls0.numRdRetry                        0                       # Number of times read queue was full causing retry
system.mem_ctrls0.numWrRetry                     1066                       # Number of times write queue was full causing retry
system.mem_ctrls0.totGap                 111376543000                       # Total gap between requests
system.mem_ctrls0.readPktSize::0                    0                       # Read request sizes (log2)
system.mem_ctrls0.readPktSize::1                    0                       # Read request sizes (log2)
system.mem_ctrls0.readPktSize::2                    0                       # Read request sizes (log2)
system.mem_ctrls0.readPktSize::3                    0                       # Read request sizes (log2)
system.mem_ctrls0.readPktSize::4                    0                       # Read request sizes (log2)
system.mem_ctrls0.readPktSize::5                    0                       # Read request sizes (log2)
system.mem_ctrls0.readPktSize::6               329738                       # Read request sizes (log2)
system.mem_ctrls0.writePktSize::0                   0                       # Write request sizes (log2)
system.mem_ctrls0.writePktSize::1                   0                       # Write request sizes (log2)
system.mem_ctrls0.writePktSize::2                   0                       # Write request sizes (log2)
system.mem_ctrls0.writePktSize::3                   0                       # Write request sizes (log2)
system.mem_ctrls0.writePktSize::4                   0                       # Write request sizes (log2)
system.mem_ctrls0.writePktSize::5                   0                       # Write request sizes (log2)
system.mem_ctrls0.writePktSize::6              186179                       # Write request sizes (log2)
system.mem_ctrls0.rdQLenPdf::0                 168919                       # What read queue length does an incoming req see
system.mem_ctrls0.rdQLenPdf::1                  48367                       # What read queue length does an incoming req see
system.mem_ctrls0.rdQLenPdf::2                  35780                       # What read queue length does an incoming req see
system.mem_ctrls0.rdQLenPdf::3                  22639                       # What read queue length does an incoming req see
system.mem_ctrls0.rdQLenPdf::4                  15387                       # What read queue length does an incoming req see
system.mem_ctrls0.rdQLenPdf::5                  11496                       # What read queue length does an incoming req see
system.mem_ctrls0.rdQLenPdf::6                   8109                       # What read queue length does an incoming req see
system.mem_ctrls0.rdQLenPdf::7                   5773                       # What read queue length does an incoming req see
system.mem_ctrls0.rdQLenPdf::8                   4168                       # What read queue length does an incoming req see
system.mem_ctrls0.rdQLenPdf::9                   2746                       # What read queue length does an incoming req see
system.mem_ctrls0.rdQLenPdf::10                  1792                       # What read queue length does an incoming req see
system.mem_ctrls0.rdQLenPdf::11                  1184                       # What read queue length does an incoming req see
system.mem_ctrls0.rdQLenPdf::12                   812                       # What read queue length does an incoming req see
system.mem_ctrls0.rdQLenPdf::13                   616                       # What read queue length does an incoming req see
system.mem_ctrls0.rdQLenPdf::14                   437                       # What read queue length does an incoming req see
system.mem_ctrls0.rdQLenPdf::15                   353                       # What read queue length does an incoming req see
system.mem_ctrls0.rdQLenPdf::16                   243                       # What read queue length does an incoming req see
system.mem_ctrls0.rdQLenPdf::17                   209                       # What read queue length does an incoming req see
system.mem_ctrls0.rdQLenPdf::18                   155                       # What read queue length does an incoming req see
system.mem_ctrls0.rdQLenPdf::19                   138                       # What read queue length does an incoming req see
system.mem_ctrls0.rdQLenPdf::20                   114                       # What read queue length does an incoming req see
system.mem_ctrls0.rdQLenPdf::21                    94                       # What read queue length does an incoming req see
system.mem_ctrls0.rdQLenPdf::22                    69                       # What read queue length does an incoming req see
system.mem_ctrls0.rdQLenPdf::23                    52                       # What read queue length does an incoming req see
system.mem_ctrls0.rdQLenPdf::24                    37                       # What read queue length does an incoming req see
system.mem_ctrls0.rdQLenPdf::25                    15                       # What read queue length does an incoming req see
system.mem_ctrls0.rdQLenPdf::26                     1                       # What read queue length does an incoming req see
system.mem_ctrls0.rdQLenPdf::27                     0                       # What read queue length does an incoming req see
system.mem_ctrls0.rdQLenPdf::28                     0                       # What read queue length does an incoming req see
system.mem_ctrls0.rdQLenPdf::29                     0                       # What read queue length does an incoming req see
system.mem_ctrls0.rdQLenPdf::30                     0                       # What read queue length does an incoming req see
system.mem_ctrls0.rdQLenPdf::31                     0                       # What read queue length does an incoming req see
system.mem_ctrls0.wrQLenPdf::0                  33373                       # What write queue length does an incoming req see
system.mem_ctrls0.wrQLenPdf::1                  36111                       # What write queue length does an incoming req see
system.mem_ctrls0.wrQLenPdf::2                  36948                       # What write queue length does an incoming req see
system.mem_ctrls0.wrQLenPdf::3                  37004                       # What write queue length does an incoming req see
system.mem_ctrls0.wrQLenPdf::4                  36281                       # What write queue length does an incoming req see
system.mem_ctrls0.wrQLenPdf::5                   2743                       # What write queue length does an incoming req see
system.mem_ctrls0.wrQLenPdf::6                   1648                       # What write queue length does an incoming req see
system.mem_ctrls0.wrQLenPdf::7                   2071                       # What write queue length does an incoming req see
system.mem_ctrls0.bytesPerActivate::samples       153992                       # Bytes accessed per row activation
system.mem_ctrls0.bytesPerActivate::mean   214.397423                       # Bytes accessed per row activation
system.mem_ctrls0.bytesPerActivate::gmean   164.782302                       # Bytes accessed per row activation
system.mem_ctrls0.bytesPerActivate::stdev   164.193689                       # Bytes accessed per row activation
system.mem_ctrls0.bytesPerActivate::0-127        45066     29.27%     29.27% # Bytes accessed per row activation
system.mem_ctrls0.bytesPerActivate::128-255        46652     30.30%     59.56% # Bytes accessed per row activation
system.mem_ctrls0.bytesPerActivate::256-383        45724     29.69%     89.25% # Bytes accessed per row activation
system.mem_ctrls0.bytesPerActivate::384-511         6918      4.49%     93.75% # Bytes accessed per row activation
system.mem_ctrls0.bytesPerActivate::512-639         5013      3.26%     97.00% # Bytes accessed per row activation
system.mem_ctrls0.bytesPerActivate::640-767         1624      1.05%     98.06% # Bytes accessed per row activation
system.mem_ctrls0.bytesPerActivate::768-895         1311      0.85%     98.91% # Bytes accessed per row activation
system.mem_ctrls0.bytesPerActivate::896-1023          730      0.47%     99.38% # Bytes accessed per row activation
system.mem_ctrls0.bytesPerActivate::1024-1151          954      0.62%    100.00% # Bytes accessed per row activation
system.mem_ctrls0.bytesPerActivate::total       153992                       # Bytes accessed per row activation
system.mem_ctrls0.rdPerTurnAround::samples        33464                       # Reads before turning the bus around for writes
system.mem_ctrls0.rdPerTurnAround::mean      9.852229                       # Reads before turning the bus around for writes
system.mem_ctrls0.rdPerTurnAround::stdev    24.229137                       # Reads before turning the bus around for writes
system.mem_ctrls0.rdPerTurnAround::0-127        33457     99.98%     99.98% # Reads before turning the bus around for writes
system.mem_ctrls0.rdPerTurnAround::128-255            6      0.02%    100.00% # Reads before turning the bus around for writes
system.mem_ctrls0.rdPerTurnAround::3968-4095            1      0.00%    100.00% # Reads before turning the bus around for writes
system.mem_ctrls0.rdPerTurnAround::total        33464                       # Reads before turning the bus around for writes
system.mem_ctrls0.wrPerTurnAround::samples        33464                       # Writes before turning the bus around for reads
system.mem_ctrls0.wrPerTurnAround::mean      5.563441                       # Writes before turning the bus around for reads
system.mem_ctrls0.wrPerTurnAround::gmean     5.425549                       # Writes before turning the bus around for reads
system.mem_ctrls0.wrPerTurnAround::stdev     1.549387                       # Writes before turning the bus around for reads
system.mem_ctrls0.wrPerTurnAround::4-7          30714     91.78%     91.78% # Writes before turning the bus around for reads
system.mem_ctrls0.wrPerTurnAround::8-11          2131      6.37%     98.15% # Writes before turning the bus around for reads
system.mem_ctrls0.wrPerTurnAround::12-15          489      1.46%     99.61% # Writes before turning the bus around for reads
system.mem_ctrls0.wrPerTurnAround::16-19          130      0.39%    100.00% # Writes before turning the bus around for reads
system.mem_ctrls0.wrPerTurnAround::total        33464                       # Writes before turning the bus around for reads
system.mem_ctrls0.totQLat                  8846444899                       # Total ticks spent queuing
system.mem_ctrls0.totMemAccLat            15028413649                       # Total ticks spent from burst creation until serviced by the DRAM
system.mem_ctrls0.totBusLat                1648525000                       # Total ticks spent in databus transfers
system.mem_ctrls0.avgQLat                    26831.39                       # Average queueing delay per DRAM burst
system.mem_ctrls0.avgBusLat                   5000.00                       # Average bus latency per DRAM burst
system.mem_ctrls0.avgMemAccLat               45581.39                       # Average memory access latency per DRAM burst
system.mem_ctrls0.avgRdBW                      189.46                       # Average DRAM read bandwidth in MiByte/s
system.mem_ctrls0.avgWrBW                      106.98                       # Average achieved write bandwidth in MiByte/s
system.mem_ctrls0.avgRdBWSys                   189.48                       # Average system read bandwidth in MiByte/s
system.mem_ctrls0.avgWrBWSys                   106.98                       # Average system write bandwidth in MiByte/s
system.mem_ctrls0.peakBW                     12800.00                       # Theoretical peak bandwidth in MiByte/s
system.mem_ctrls0.busUtil                        2.32                       # Data bus utilization in percentage
system.mem_ctrls0.busUtilRead                    1.48                       # Data bus utilization in percentage for reads
system.mem_ctrls0.busUtilWrite                   0.84                       # Data bus utilization in percentage for writes
system.mem_ctrls0.avgRdQLen                      1.55                       # Average read queue length when enqueuing
system.mem_ctrls0.avgWrQLen                      3.01                       # Average write queue length when enqueuing
system.mem_ctrls0.readRowHits                  244552                       # Number of row buffer hits during reads
system.mem_ctrls0.writeRowHits                 117326                       # Number of row buffer hits during writes
system.mem_ctrls0.readRowHitRate                74.17                       # Row buffer hit rate for reads
system.mem_ctrls0.writeRowHitRate               63.02                       # Row buffer hit rate for writes
system.mem_ctrls0.avgGap                    215880.74                       # Average gap between requests
system.mem_ctrls0.pageHitRate                   70.15                       # Row buffer hit rate, read and write combined
system.mem_ctrls0.memoryStateTime::IDLE   16991492500                       # Time in different power states
system.mem_ctrls0.memoryStateTime::REF     3719040000                       # Time in different power states
system.mem_ctrls0.memoryStateTime::PRE_PDN            0                       # Time in different power states
system.mem_ctrls0.memoryStateTime::ACT    90664674000                       # Time in different power states
system.mem_ctrls0.memoryStateTime::ACT_PDN            0                       # Time in different power states
system.mem_ctrls0.actEnergy::0              587706840                       # Energy for activate commands per rank (pJ)
system.mem_ctrls0.actEnergy::1              576450000                       # Energy for activate commands per rank (pJ)
system.mem_ctrls0.preEnergy::0              320673375                       # Energy for precharge commands per rank (pJ)
system.mem_ctrls0.preEnergy::1              314531250                       # Energy for precharge commands per rank (pJ)
system.mem_ctrls0.readEnergy::0            1290837600                       # Energy for read commands per rank (pJ)
system.mem_ctrls0.readEnergy::1            1280767800                       # Energy for read commands per rank (pJ)
system.mem_ctrls0.writeEnergy::0            604298880                       # Energy for write commands per rank (pJ)
system.mem_ctrls0.writeEnergy::1            602082720                       # Energy for write commands per rank (pJ)
system.mem_ctrls0.refreshEnergy::0         7274442240                       # Energy for refresh commands per rank (pJ)
system.mem_ctrls0.refreshEnergy::1         7274442240                       # Energy for refresh commands per rank (pJ)
system.mem_ctrls0.actBackEnergy::0        49813809930                       # Energy for active background per rank (pJ)
system.mem_ctrls0.actBackEnergy::1        49052924055                       # Energy for active background per rank (pJ)
system.mem_ctrls0.preBackEnergy::0        23128543500                       # Energy for precharge background per rank (pJ)
system.mem_ctrls0.preBackEnergy::1        23795987250                       # Energy for precharge background per rank (pJ)
system.mem_ctrls0.totalEnergy::0          83020312365                       # Total energy per rank (pJ)
system.mem_ctrls0.totalEnergy::1          82897185315                       # Total energy per rank (pJ)
system.mem_ctrls0.averagePower::0          745.413929                       # Core power per rank (mW)
system.mem_ctrls0.averagePower::1          744.308409                       # Core power per rank (mW)
system.mem_ctrls1.bytes_read::ruby.dir_cntrl1     20667776                       # Number of bytes read from this memory
system.mem_ctrls1.bytes_read::total          20667776                       # Number of bytes read from this memory
system.mem_ctrls1.bytes_written::ruby.dir_cntrl1     11494208                       # Number of bytes written to this memory
system.mem_ctrls1.bytes_written::total       11494208                       # Number of bytes written to this memory
system.mem_ctrls1.num_reads::ruby.dir_cntrl1       322934                       # Number of read requests responded to by this memory
system.mem_ctrls1.num_reads::total             322934                       # Number of read requests responded to by this memory
system.mem_ctrls1.num_writes::ruby.dir_cntrl1       179597                       # Number of write requests responded to by this memory
system.mem_ctrls1.num_writes::total            179597                       # Number of write requests responded to by this memory
system.mem_ctrls1.bw_read::ruby.dir_cntrl1    185565749                       # Total read bandwidth from this memory (bytes/s)
system.mem_ctrls1.bw_read::total            185565749                       # Total read bandwidth from this memory (bytes/s)
system.mem_ctrls1.bw_write::ruby.dir_cntrl1    103200814                       # Write bandwidth from this memory (bytes/s)
system.mem_ctrls1.bw_write::total           103200814                       # Write bandwidth from this memory (bytes/s)
system.mem_ctrls1.bw_total::ruby.dir_cntrl1    288766563                       # Total bandwidth to/from this memory (bytes/s)
system.mem_ctrls1.bw_total::total           288766563                       # Total bandwidth to/from this memory (bytes/s)
system.mem_ctrls1.readReqs                     322934                       # Number of read requests accepted
system.mem_ctrls1.writeReqs                    179597                       # Number of write requests accepted
system.mem_ctrls1.readBursts                   322934                       # Number of DRAM read bursts, including those serviced by the write queue
system.mem_ctrls1.writeBursts                  179597                       # Number of DRAM write bursts, including those merged in the write queue
system.mem_ctrls1.bytesReadDRAM              20665792                       # Total number of bytes read from DRAM
system.mem_ctrls1.bytesReadWrQ                   1984                       # Total number of bytes read from write queue
system.mem_ctrls1.bytesWritten               11493952                       # Total number of bytes written to DRAM
system.mem_ctrls1.bytesReadSys               20667776                       # Total read bytes from the system interface side
system.mem_ctrls1.bytesWrittenSys            11494208                       # Total written bytes from the system interface side
system.mem_ctrls1.servicedByWrQ                    31                       # Number of DRAM read bursts serviced by the write queue
system.mem_ctrls1.mergedWrBursts                    0                       # Number of DRAM write bursts merged with an existing one
system.mem_ctrls1.neitherReadNorWriteReqs            0                       # Number of requests that are neither read nor write
system.mem_ctrls1.perBankRdBursts::0            19874                       # Per bank write bursts
system.mem_ctrls1.perBankRdBursts::1            20567                       # Per bank write bursts
system.mem_ctrls1.perBankRdBursts::2            20116                       # Per bank write bursts
system.mem_ctrls1.perBankRdBursts::3            20409                       # Per bank write bursts
system.mem_ctrls1.perBankRdBursts::4            20106                       # Per bank write bursts
system.mem_ctrls1.perBankRdBursts::5            20548                       # Per bank write bursts
system.mem_ctrls1.perBankRdBursts::6            20235                       # Per bank write bursts
system.mem_ctrls1.perBankRdBursts::7            20372                       # Per bank write bursts
system.mem_ctrls1.perBankRdBursts::8            20257                       # Per bank write bursts
system.mem_ctrls1.perBankRdBursts::9            20435                       # Per bank write bursts
system.mem_ctrls1.perBankRdBursts::10           20150                       # Per bank write bursts
system.mem_ctrls1.perBankRdBursts::11           20434                       # Per bank write bursts
system.mem_ctrls1.perBankRdBursts::12           19803                       # Per bank write bursts
system.mem_ctrls1.perBankRdBursts::13           19713                       # Per bank write bursts
system.mem_ctrls1.perBankRdBursts::14           19929                       # Per bank write bursts
system.mem_ctrls1.perBankRdBursts::15           19955                       # Per bank write bursts
system.mem_ctrls1.perBankWrBursts::0            11109                       # Per bank write bursts
system.mem_ctrls1.perBankWrBursts::1            11258                       # Per bank write bursts
system.mem_ctrls1.perBankWrBursts::2            11281                       # Per bank write bursts
system.mem_ctrls1.perBankWrBursts::3            11246                       # Per bank write bursts
system.mem_ctrls1.perBankWrBursts::4            11215                       # Per bank write bursts
system.mem_ctrls1.perBankWrBursts::5            11517                       # Per bank write bursts
system.mem_ctrls1.perBankWrBursts::6            11137                       # Per bank write bursts
system.mem_ctrls1.perBankWrBursts::7            11264                       # Per bank write bursts
system.mem_ctrls1.perBankWrBursts::8            11490                       # Per bank write bursts
system.mem_ctrls1.perBankWrBursts::9            11310                       # Per bank write bursts
system.mem_ctrls1.perBankWrBursts::10           11130                       # Per bank write bursts
system.mem_ctrls1.perBankWrBursts::11           11293                       # Per bank write bursts
system.mem_ctrls1.perBankWrBursts::12           10952                       # Per bank write bursts
system.mem_ctrls1.perBankWrBursts::13           10908                       # Per bank write bursts
system.mem_ctrls1.perBankWrBursts::14           11291                       # Per bank write bursts
system.mem_ctrls1.perBankWrBursts::15           11192                       # Per bank write bursts
system.mem_ctrls1.numRdRetry                        0                       # Number of times read queue was full causing retry
system.mem_ctrls1.numWrRetry                      980                       # Number of times write queue was full causing retry
system.mem_ctrls1.totGap                 111376272000                       # Total gap between requests
system.mem_ctrls1.readPktSize::0                    0                       # Read request sizes (log2)
system.mem_ctrls1.readPktSize::1                    0                       # Read request sizes (log2)
system.mem_ctrls1.readPktSize::2                    0                       # Read request sizes (log2)
system.mem_ctrls1.readPktSize::3                    0                       # Read request sizes (log2)
system.mem_ctrls1.readPktSize::4                    0                       # Read request sizes (log2)
system.mem_ctrls1.readPktSize::5                    0                       # Read request sizes (log2)
system.mem_ctrls1.readPktSize::6               322934                       # Read request sizes (log2)
system.mem_ctrls1.writePktSize::0                   0                       # Write request sizes (log2)
system.mem_ctrls1.writePktSize::1                   0                       # Write request sizes (log2)
system.mem_ctrls1.writePktSize::2                   0                       # Write request sizes (log2)
system.mem_ctrls1.writePktSize::3                   0                       # Write request sizes (log2)
system.mem_ctrls1.writePktSize::4                   0                       # Write request sizes (log2)
system.mem_ctrls1.writePktSize::5                   0                       # Write request sizes (log2)
system.mem_ctrls1.writePktSize::6              179597                       # Write request sizes (log2)
system.mem_ctrls1.rdQLenPdf::0                 165167                       # What read queue length does an incoming req see
system.mem_ctrls1.rdQLenPdf::1                  47367                       # What read queue length does an incoming req see
system.mem_ctrls1.rdQLenPdf::2                  33940                       # What read queue length does an incoming req see
system.mem_ctrls1.rdQLenPdf::3                  23182                       # What read queue length does an incoming req see
system.mem_ctrls1.rdQLenPdf::4                  15387                       # What read queue length does an incoming req see
system.mem_ctrls1.rdQLenPdf::5                  11188                       # What read queue length does an incoming req see
system.mem_ctrls1.rdQLenPdf::6                   8150                       # What read queue length does an incoming req see
system.mem_ctrls1.rdQLenPdf::7                   5788                       # What read queue length does an incoming req see
system.mem_ctrls1.rdQLenPdf::8                   3858                       # What read queue length does an incoming req see
system.mem_ctrls1.rdQLenPdf::9                   2641                       # What read queue length does an incoming req see
system.mem_ctrls1.rdQLenPdf::10                  1795                       # What read queue length does an incoming req see
system.mem_ctrls1.rdQLenPdf::11                  1205                       # What read queue length does an incoming req see
system.mem_ctrls1.rdQLenPdf::12                   851                       # What read queue length does an incoming req see
system.mem_ctrls1.rdQLenPdf::13                   593                       # What read queue length does an incoming req see
system.mem_ctrls1.rdQLenPdf::14                   418                       # What read queue length does an incoming req see
system.mem_ctrls1.rdQLenPdf::15                   300                       # What read queue length does an incoming req see
system.mem_ctrls1.rdQLenPdf::16                   211                       # What read queue length does an incoming req see
system.mem_ctrls1.rdQLenPdf::17                   198                       # What read queue length does an incoming req see
system.mem_ctrls1.rdQLenPdf::18                   183                       # What read queue length does an incoming req see
system.mem_ctrls1.rdQLenPdf::19                   151                       # What read queue length does an incoming req see
system.mem_ctrls1.rdQLenPdf::20                   102                       # What read queue length does an incoming req see
system.mem_ctrls1.rdQLenPdf::21                    87                       # What read queue length does an incoming req see
system.mem_ctrls1.rdQLenPdf::22                    69                       # What read queue length does an incoming req see
system.mem_ctrls1.rdQLenPdf::23                    46                       # What read queue length does an incoming req see
system.mem_ctrls1.rdQLenPdf::24                    20                       # What read queue length does an incoming req see
system.mem_ctrls1.rdQLenPdf::25                     5                       # What read queue length does an incoming req see
system.mem_ctrls1.rdQLenPdf::26                     1                       # What read queue length does an incoming req see
system.mem_ctrls1.rdQLenPdf::27                     0                       # What read queue length does an incoming req see
system.mem_ctrls1.rdQLenPdf::28                     0                       # What read queue length does an incoming req see
system.mem_ctrls1.rdQLenPdf::29                     0                       # What read queue length does an incoming req see
system.mem_ctrls1.rdQLenPdf::30                     0                       # What read queue length does an incoming req see
system.mem_ctrls1.rdQLenPdf::31                     0                       # What read queue length does an incoming req see
system.mem_ctrls1.wrQLenPdf::0                  32243                       # What write queue length does an incoming req see
system.mem_ctrls1.wrQLenPdf::1                  34787                       # What write queue length does an incoming req see
system.mem_ctrls1.wrQLenPdf::2                  35427                       # What write queue length does an incoming req see
system.mem_ctrls1.wrQLenPdf::3                  35557                       # What write queue length does an incoming req see
system.mem_ctrls1.wrQLenPdf::4                  34950                       # What write queue length does an incoming req see
system.mem_ctrls1.wrQLenPdf::5                   2836                       # What write queue length does an incoming req see
system.mem_ctrls1.wrQLenPdf::6                   1751                       # What write queue length does an incoming req see
system.mem_ctrls1.wrQLenPdf::7                   2046                       # What write queue length does an incoming req see
system.mem_ctrls1.bytesPerActivate::samples       145369                       # Bytes accessed per row activation
system.mem_ctrls1.bytesPerActivate::mean   221.223947                       # Bytes accessed per row activation
system.mem_ctrls1.bytesPerActivate::gmean   169.917691                       # Bytes accessed per row activation
system.mem_ctrls1.bytesPerActivate::stdev   167.466004                       # Bytes accessed per row activation
system.mem_ctrls1.bytesPerActivate::0-127        40989     28.20%     28.20% # Bytes accessed per row activation
system.mem_ctrls1.bytesPerActivate::128-255        42040     28.92%     57.12% # Bytes accessed per row activation
system.mem_ctrls1.bytesPerActivate::256-383        45521     31.31%     88.43% # Bytes accessed per row activation
system.mem_ctrls1.bytesPerActivate::384-511         6986      4.81%     93.24% # Bytes accessed per row activation
system.mem_ctrls1.bytesPerActivate::512-639         5050      3.47%     96.71% # Bytes accessed per row activation
system.mem_ctrls1.bytesPerActivate::640-767         1763      1.21%     97.92% # Bytes accessed per row activation
system.mem_ctrls1.bytesPerActivate::768-895         1333      0.92%     98.84% # Bytes accessed per row activation
system.mem_ctrls1.bytesPerActivate::896-1023          782      0.54%     99.38% # Bytes accessed per row activation
system.mem_ctrls1.bytesPerActivate::1024-1151          905      0.62%    100.00% # Bytes accessed per row activation
system.mem_ctrls1.bytesPerActivate::total       145369                       # Bytes accessed per row activation
system.mem_ctrls1.rdPerTurnAround::samples        32328                       # Reads before turning the bus around for writes
system.mem_ctrls1.rdPerTurnAround::mean      9.986575                       # Reads before turning the bus around for writes
system.mem_ctrls1.rdPerTurnAround::stdev    20.392541                       # Reads before turning the bus around for writes
system.mem_ctrls1.rdPerTurnAround::0-127        32322     99.98%     99.98% # Reads before turning the bus around for writes
system.mem_ctrls1.rdPerTurnAround::128-255            4      0.01%     99.99% # Reads before turning the bus around for writes
system.mem_ctrls1.rdPerTurnAround::1152-1279            1      0.00%    100.00% # Reads before turning the bus around for writes
system.mem_ctrls1.rdPerTurnAround::2816-2943            1      0.00%    100.00% # Reads before turning the bus around for writes
system.mem_ctrls1.rdPerTurnAround::total        32328                       # Reads before turning the bus around for writes
system.mem_ctrls1.wrPerTurnAround::samples        32328                       # Writes before turning the bus around for reads
system.mem_ctrls1.wrPerTurnAround::mean      5.555339                       # Writes before turning the bus around for reads
system.mem_ctrls1.wrPerTurnAround::gmean     5.420105                       # Writes before turning the bus around for reads
system.mem_ctrls1.wrPerTurnAround::stdev     1.527721                       # Writes before turning the bus around for reads
system.mem_ctrls1.wrPerTurnAround::4-7          29674     91.79%     91.79% # Writes before turning the bus around for reads
system.mem_ctrls1.wrPerTurnAround::8-11          2099      6.49%     98.28% # Writes before turning the bus around for reads
system.mem_ctrls1.wrPerTurnAround::12-15          439      1.36%     99.64% # Writes before turning the bus around for reads
system.mem_ctrls1.wrPerTurnAround::16-19          116      0.36%    100.00% # Writes before turning the bus around for reads
system.mem_ctrls1.wrPerTurnAround::total        32328                       # Writes before turning the bus around for reads
system.mem_ctrls1.totQLat                  8491742740                       # Total ticks spent queuing
system.mem_ctrls1.totMemAccLat            14546173990                       # Total ticks spent from burst creation until serviced by the DRAM
system.mem_ctrls1.totBusLat                1614515000                       # Total ticks spent in databus transfers
system.mem_ctrls1.avgQLat                    26298.12                       # Average queueing delay per DRAM burst
system.mem_ctrls1.avgBusLat                   5000.00                       # Average bus latency per DRAM burst
system.mem_ctrls1.avgMemAccLat               45048.12                       # Average memory access latency per DRAM burst
system.mem_ctrls1.avgRdBW                      185.55                       # Average DRAM read bandwidth in MiByte/s
system.mem_ctrls1.avgWrBW                      103.20                       # Average achieved write bandwidth in MiByte/s
system.mem_ctrls1.avgRdBWSys                   185.57                       # Average system read bandwidth in MiByte/s
system.mem_ctrls1.avgWrBWSys                   103.20                       # Average system write bandwidth in MiByte/s
system.mem_ctrls1.peakBW                     12800.00                       # Theoretical peak bandwidth in MiByte/s
system.mem_ctrls1.busUtil                        2.26                       # Data bus utilization in percentage
system.mem_ctrls1.busUtilRead                    1.45                       # Data bus utilization in percentage for reads
system.mem_ctrls1.busUtilWrite                   0.81                       # Data bus utilization in percentage for writes
system.mem_ctrls1.avgRdQLen                      1.55                       # Average read queue length when enqueuing
system.mem_ctrls1.avgWrQLen                      3.01                       # Average write queue length when enqueuing
system.mem_ctrls1.readRowHits                  241145                       # Number of row buffer hits during reads
system.mem_ctrls1.writeRowHits                 115976                       # Number of row buffer hits during writes
system.mem_ctrls1.readRowHitRate                74.68                       # Row buffer hit rate for reads
system.mem_ctrls1.writeRowHitRate               64.58                       # Row buffer hit rate for writes
system.mem_ctrls1.avgGap                    221630.65                       # Average gap between requests
system.mem_ctrls1.pageHitRate                   71.07                       # Row buffer hit rate, read and write combined
system.mem_ctrls1.memoryStateTime::IDLE   17155474250                       # Time in different power states
system.mem_ctrls1.memoryStateTime::REF     3719040000                       # Time in different power states
system.mem_ctrls1.memoryStateTime::PRE_PDN            0                       # Time in different power states
system.mem_ctrls1.memoryStateTime::ACT    90500279500                       # Time in different power states
system.mem_ctrls1.memoryStateTime::ACT_PDN            0                       # Time in different power states
system.mem_ctrls1.actEnergy::0              556710840                       # Energy for activate commands per rank (pJ)
system.mem_ctrls1.actEnergy::1              542263680                       # Energy for activate commands per rank (pJ)
system.mem_ctrls1.preEnergy::0              303760875                       # Energy for precharge commands per rank (pJ)
system.mem_ctrls1.preEnergy::1              295878000                       # Energy for precharge commands per rank (pJ)
system.mem_ctrls1.readEnergy::0            1265308200                       # Energy for read commands per rank (pJ)
system.mem_ctrls1.readEnergy::1            1253233800                       # Energy for read commands per rank (pJ)
system.mem_ctrls1.writeEnergy::0            583374960                       # Energy for write commands per rank (pJ)
system.mem_ctrls1.writeEnergy::1            580387680                       # Energy for write commands per rank (pJ)
system.mem_ctrls1.refreshEnergy::0         7274442240                       # Energy for refresh commands per rank (pJ)
system.mem_ctrls1.refreshEnergy::1         7274442240                       # Energy for refresh commands per rank (pJ)
system.mem_ctrls1.actBackEnergy::0        49298999040                       # Energy for active background per rank (pJ)
system.mem_ctrls1.actBackEnergy::1        48299941800                       # Energy for active background per rank (pJ)
system.mem_ctrls1.preBackEnergy::0        23580132000                       # Energy for precharge background per rank (pJ)
system.mem_ctrls1.preBackEnergy::1        24456498000                       # Energy for precharge background per rank (pJ)
system.mem_ctrls1.totalEnergy::0          82862728155                       # Total energy per rank (pJ)
system.mem_ctrls1.totalEnergy::1          82702645200                       # Total energy per rank (pJ)
system.mem_ctrls1.averagePower::0          743.999029                       # Core power per rank (mW)
system.mem_ctrls1.averagePower::1          742.561693                       # Core power per rank (mW)
system.mem_ctrls2.bytes_read::ruby.dir_cntrl2     20677696                       # Number of bytes read from this memory
system.mem_ctrls2.bytes_read::total          20677696                       # Number of bytes read from this memory
system.mem_ctrls2.bytes_written::ruby.dir_cntrl2     11496256                       # Number of bytes written to this memory
system.mem_ctrls2.bytes_written::total       11496256                       # Number of bytes written to this memory
system.mem_ctrls2.num_reads::ruby.dir_cntrl2       323089                       # Number of read requests responded to by this memory
system.mem_ctrls2.num_reads::total             323089                       # Number of read requests responded to by this memory
system.mem_ctrls2.num_writes::ruby.dir_cntrl2       179629                       # Number of write requests responded to by this memory
system.mem_ctrls2.num_writes::total            179629                       # Number of write requests responded to by this memory
system.mem_ctrls2.bw_read::ruby.dir_cntrl2    185654816                       # Total read bandwidth from this memory (bytes/s)
system.mem_ctrls2.bw_read::total            185654816                       # Total read bandwidth from this memory (bytes/s)
system.mem_ctrls2.bw_write::ruby.dir_cntrl2    103219202                       # Write bandwidth from this memory (bytes/s)
system.mem_ctrls2.bw_write::total           103219202                       # Write bandwidth from this memory (bytes/s)
system.mem_ctrls2.bw_total::ruby.dir_cntrl2    288874018                       # Total bandwidth to/from this memory (bytes/s)
system.mem_ctrls2.bw_total::total           288874018                       # Total bandwidth to/from this memory (bytes/s)
system.mem_ctrls2.readReqs                     323089                       # Number of read requests accepted
system.mem_ctrls2.writeReqs                    179629                       # Number of write requests accepted
system.mem_ctrls2.readBursts                   323089                       # Number of DRAM read bursts, including those serviced by the write queue
system.mem_ctrls2.writeBursts                  179629                       # Number of DRAM write bursts, including those merged in the write queue
system.mem_ctrls2.bytesReadDRAM              20676736                       # Total number of bytes read from DRAM
system.mem_ctrls2.bytesReadWrQ                    960                       # Total number of bytes read from write queue
system.mem_ctrls2.bytesWritten               11496128                       # Total number of bytes written to DRAM
system.mem_ctrls2.bytesReadSys               20677696                       # Total read bytes from the system interface side
system.mem_ctrls2.bytesWrittenSys            11496256                       # Total written bytes from the system interface side
system.mem_ctrls2.servicedByWrQ                    15                       # Number of DRAM read bursts serviced by the write queue
system.mem_ctrls2.mergedWrBursts                    0                       # Number of DRAM write bursts merged with an existing one
system.mem_ctrls2.neitherReadNorWriteReqs            0                       # Number of requests that are neither read nor write
system.mem_ctrls2.perBankRdBursts::0            19895                       # Per bank write bursts
system.mem_ctrls2.perBankRdBursts::1            20565                       # Per bank write bursts
system.mem_ctrls2.perBankRdBursts::2            20131                       # Per bank write bursts
system.mem_ctrls2.perBankRdBursts::3            20501                       # Per bank write bursts
system.mem_ctrls2.perBankRdBursts::4            20120                       # Per bank write bursts
system.mem_ctrls2.perBankRdBursts::5            20527                       # Per bank write bursts
system.mem_ctrls2.perBankRdBursts::6            20216                       # Per bank write bursts
system.mem_ctrls2.perBankRdBursts::7            20356                       # Per bank write bursts
system.mem_ctrls2.perBankRdBursts::8            20239                       # Per bank write bursts
system.mem_ctrls2.perBankRdBursts::9            20448                       # Per bank write bursts
system.mem_ctrls2.perBankRdBursts::10           20170                       # Per bank write bursts
system.mem_ctrls2.perBankRdBursts::11           20498                       # Per bank write bursts
system.mem_ctrls2.perBankRdBursts::12           19830                       # Per bank write bursts
system.mem_ctrls2.perBankRdBursts::13           19687                       # Per bank write bursts
system.mem_ctrls2.perBankRdBursts::14           19916                       # Per bank write bursts
system.mem_ctrls2.perBankRdBursts::15           19975                       # Per bank write bursts
system.mem_ctrls2.perBankWrBursts::0            11109                       # Per bank write bursts
system.mem_ctrls2.perBankWrBursts::1            11249                       # Per bank write bursts
system.mem_ctrls2.perBankWrBursts::2            11282                       # Per bank write bursts
system.mem_ctrls2.perBankWrBursts::3            11266                       # Per bank write bursts
system.mem_ctrls2.perBankWrBursts::4            11210                       # Per bank write bursts
system.mem_ctrls2.perBankWrBursts::5            11497                       # Per bank write bursts
system.mem_ctrls2.perBankWrBursts::6            11147                       # Per bank write bursts
system.mem_ctrls2.perBankWrBursts::7            11278                       # Per bank write bursts
system.mem_ctrls2.perBankWrBursts::8            11465                       # Per bank write bursts
system.mem_ctrls2.perBankWrBursts::9            11319                       # Per bank write bursts
system.mem_ctrls2.perBankWrBursts::10           11112                       # Per bank write bursts
system.mem_ctrls2.perBankWrBursts::11           11316                       # Per bank write bursts
system.mem_ctrls2.perBankWrBursts::12           10959                       # Per bank write bursts
system.mem_ctrls2.perBankWrBursts::13           10911                       # Per bank write bursts
system.mem_ctrls2.perBankWrBursts::14           11296                       # Per bank write bursts
system.mem_ctrls2.perBankWrBursts::15           11211                       # Per bank write bursts
system.mem_ctrls2.numRdRetry                        0                       # Number of times read queue was full causing retry
system.mem_ctrls2.numWrRetry                     1027                       # Number of times write queue was full causing retry
system.mem_ctrls2.totGap                 111376964500                       # Total gap between requests
system.mem_ctrls2.readPktSize::0                    0                       # Read request sizes (log2)
system.mem_ctrls2.readPktSize::1                    0                       # Read request sizes (log2)
system.mem_ctrls2.readPktSize::2                    0                       # Read request sizes (log2)
system.mem_ctrls2.readPktSize::3                    0                       # Read request sizes (log2)
system.mem_ctrls2.readPktSize::4                    0                       # Read request sizes (log2)
system.mem_ctrls2.readPktSize::5                    0                       # Read request sizes (log2)
system.mem_ctrls2.readPktSize::6               323089                       # Read request sizes (log2)
system.mem_ctrls2.writePktSize::0                   0                       # Write request sizes (log2)
system.mem_ctrls2.writePktSize::1                   0                       # Write request sizes (log2)
system.mem_ctrls2.writePktSize::2                   0                       # Write request sizes (log2)
system.mem_ctrls2.writePktSize::3                   0                       # Write request sizes (log2)
system.mem_ctrls2.writePktSize::4                   0                       # Write request sizes (log2)
system.mem_ctrls2.writePktSize::5                   0                       # Write request sizes (log2)
system.mem_ctrls2.writePktSize::6              179629                       # Write request sizes (log2)
system.mem_ctrls2.rdQLenPdf::0                 165924                       # What read queue length does an incoming req see
system.mem_ctrls2.rdQLenPdf::1                  47316                       # What read queue length does an incoming req see
system.mem_ctrls2.rdQLenPdf::2                  33845                       # What read queue length does an incoming req see
system.mem_ctrls2.rdQLenPdf::3                  23162                       # What read queue length does an incoming req see
system.mem_ctrls2.rdQLenPdf::4                  15431                       # What read queue length does an incoming req see
system.mem_ctrls2.rdQLenPdf::5                  11248                       # What read queue length does an incoming req see
system.mem_ctrls2.rdQLenPdf::6                   8003                       # What read queue length does an incoming req see
system.mem_ctrls2.rdQLenPdf::7                   5544                       # What read queue length does an incoming req see
system.mem_ctrls2.rdQLenPdf::8                   3852                       # What read queue length does an incoming req see
system.mem_ctrls2.rdQLenPdf::9                   2642                       # What read queue length does an incoming req see
system.mem_ctrls2.rdQLenPdf::10                  1736                       # What read queue length does an incoming req see
system.mem_ctrls2.rdQLenPdf::11                  1226                       # What read queue length does an incoming req see
system.mem_ctrls2.rdQLenPdf::12                   795                       # What read queue length does an incoming req see
system.mem_ctrls2.rdQLenPdf::13                   583                       # What read queue length does an incoming req see
system.mem_ctrls2.rdQLenPdf::14                   425                       # What read queue length does an incoming req see
system.mem_ctrls2.rdQLenPdf::15                   309                       # What read queue length does an incoming req see
system.mem_ctrls2.rdQLenPdf::16                   230                       # What read queue length does an incoming req see
system.mem_ctrls2.rdQLenPdf::17                   176                       # What read queue length does an incoming req see
system.mem_ctrls2.rdQLenPdf::18                   163                       # What read queue length does an incoming req see
system.mem_ctrls2.rdQLenPdf::19                   143                       # What read queue length does an incoming req see
system.mem_ctrls2.rdQLenPdf::20                   103                       # What read queue length does an incoming req see
system.mem_ctrls2.rdQLenPdf::21                    86                       # What read queue length does an incoming req see
system.mem_ctrls2.rdQLenPdf::22                    59                       # What read queue length does an incoming req see
system.mem_ctrls2.rdQLenPdf::23                    36                       # What read queue length does an incoming req see
system.mem_ctrls2.rdQLenPdf::24                    21                       # What read queue length does an incoming req see
system.mem_ctrls2.rdQLenPdf::25                     9                       # What read queue length does an incoming req see
system.mem_ctrls2.rdQLenPdf::26                     4                       # What read queue length does an incoming req see
system.mem_ctrls2.rdQLenPdf::27                     1                       # What read queue length does an incoming req see
system.mem_ctrls2.rdQLenPdf::28                     1                       # What read queue length does an incoming req see
system.mem_ctrls2.rdQLenPdf::29                     1                       # What read queue length does an incoming req see
system.mem_ctrls2.rdQLenPdf::30                     0                       # What read queue length does an incoming req see
system.mem_ctrls2.rdQLenPdf::31                     0                       # What read queue length does an incoming req see
system.mem_ctrls2.wrQLenPdf::0                  32211                       # What write queue length does an incoming req see
system.mem_ctrls2.wrQLenPdf::1                  34765                       # What write queue length does an incoming req see
system.mem_ctrls2.wrQLenPdf::2                  35485                       # What write queue length does an incoming req see
system.mem_ctrls2.wrQLenPdf::3                  35637                       # What write queue length does an incoming req see
system.mem_ctrls2.wrQLenPdf::4                  35019                       # What write queue length does an incoming req see
system.mem_ctrls2.wrQLenPdf::5                   2735                       # What write queue length does an incoming req see
system.mem_ctrls2.wrQLenPdf::6                   1701                       # What write queue length does an incoming req see
system.mem_ctrls2.wrQLenPdf::7                   2076                       # What write queue length does an incoming req see
system.mem_ctrls2.bytesPerActivate::samples       145136                       # Bytes accessed per row activation
system.mem_ctrls2.bytesPerActivate::mean   221.670819                       # Bytes accessed per row activation
system.mem_ctrls2.bytesPerActivate::gmean   170.396082                       # Bytes accessed per row activation
system.mem_ctrls2.bytesPerActivate::stdev   167.326607                       # Bytes accessed per row activation
system.mem_ctrls2.bytesPerActivate::0-127        40803     28.11%     28.11% # Bytes accessed per row activation
system.mem_ctrls2.bytesPerActivate::128-255        41659     28.70%     56.82% # Bytes accessed per row activation
system.mem_ctrls2.bytesPerActivate::256-383        45929     31.65%     88.46% # Bytes accessed per row activation
system.mem_ctrls2.bytesPerActivate::384-511         6939      4.78%     93.24% # Bytes accessed per row activation
system.mem_ctrls2.bytesPerActivate::512-639         5061      3.49%     96.73% # Bytes accessed per row activation
system.mem_ctrls2.bytesPerActivate::640-767         1778      1.23%     97.96% # Bytes accessed per row activation
system.mem_ctrls2.bytesPerActivate::768-895         1266      0.87%     98.83% # Bytes accessed per row activation
system.mem_ctrls2.bytesPerActivate::896-1023          761      0.52%     99.35% # Bytes accessed per row activation
system.mem_ctrls2.bytesPerActivate::1024-1151          940      0.65%    100.00% # Bytes accessed per row activation
system.mem_ctrls2.bytesPerActivate::total       145136                       # Bytes accessed per row activation
system.mem_ctrls2.rdPerTurnAround::samples        32315                       # Reads before turning the bus around for writes
system.mem_ctrls2.rdPerTurnAround::mean      9.996348                       # Reads before turning the bus around for writes
system.mem_ctrls2.rdPerTurnAround::stdev    20.380022                       # Reads before turning the bus around for writes
system.mem_ctrls2.rdPerTurnAround::0-127        32310     99.98%     99.98% # Reads before turning the bus around for writes
system.mem_ctrls2.rdPerTurnAround::128-255            3      0.01%     99.99% # Reads before turning the bus around for writes
system.mem_ctrls2.rdPerTurnAround::1152-1279            1      0.00%    100.00% # Reads before turning the bus around for writes
system.mem_ctrls2.rdPerTurnAround::2816-2943            1      0.00%    100.00% # Reads before turning the bus around for writes
system.mem_ctrls2.rdPerTurnAround::total        32315                       # Reads before turning the bus around for writes
system.mem_ctrls2.wrPerTurnAround::samples        32315                       # Writes before turning the bus around for reads
system.mem_ctrls2.wrPerTurnAround::mean      5.558626                       # Writes before turning the bus around for reads
system.mem_ctrls2.wrPerTurnAround::gmean     5.419936                       # Writes before turning the bus around for reads
system.mem_ctrls2.wrPerTurnAround::stdev     1.557840                       # Writes before turning the bus around for reads
system.mem_ctrls2.wrPerTurnAround::4-7          29663     91.79%     91.79% # Writes before turning the bus around for reads
system.mem_ctrls2.wrPerTurnAround::8-11          2085      6.45%     98.25% # Writes before turning the bus around for reads
system.mem_ctrls2.wrPerTurnAround::12-15          419      1.30%     99.54% # Writes before turning the bus around for reads
system.mem_ctrls2.wrPerTurnAround::16-19          148      0.46%    100.00% # Writes before turning the bus around for reads
system.mem_ctrls2.wrPerTurnAround::total        32315                       # Writes before turning the bus around for reads
system.mem_ctrls2.totQLat                  8398508386                       # Total ticks spent queuing
system.mem_ctrls2.totMemAccLat            14456145886                       # Total ticks spent from burst creation until serviced by the DRAM
system.mem_ctrls2.totBusLat                1615370000                       # Total ticks spent in databus transfers
system.mem_ctrls2.avgQLat                    25995.62                       # Average queueing delay per DRAM burst
system.mem_ctrls2.avgBusLat                   5000.00                       # Average bus latency per DRAM burst
system.mem_ctrls2.avgMemAccLat               44745.62                       # Average memory access latency per DRAM burst
system.mem_ctrls2.avgRdBW                      185.65                       # Average DRAM read bandwidth in MiByte/s
system.mem_ctrls2.avgWrBW                      103.22                       # Average achieved write bandwidth in MiByte/s
system.mem_ctrls2.avgRdBWSys                   185.65                       # Average system read bandwidth in MiByte/s
system.mem_ctrls2.avgWrBWSys                   103.22                       # Average system write bandwidth in MiByte/s
system.mem_ctrls2.peakBW                     12800.00                       # Theoretical peak bandwidth in MiByte/s
system.mem_ctrls2.busUtil                        2.26                       # Data bus utilization in percentage
system.mem_ctrls2.busUtilRead                    1.45                       # Data bus utilization in percentage for reads
system.mem_ctrls2.busUtilWrite                   0.81                       # Data bus utilization in percentage for writes
system.mem_ctrls2.avgRdQLen                      1.54                       # Average read queue length when enqueuing
system.mem_ctrls2.avgWrQLen                      3.02                       # Average write queue length when enqueuing
system.mem_ctrls2.readRowHits                  241366                       # Number of row buffer hits during reads
system.mem_ctrls2.writeRowHits                 116194                       # Number of row buffer hits during writes
system.mem_ctrls2.readRowHitRate                74.71                       # Row buffer hit rate for reads
system.mem_ctrls2.writeRowHitRate               64.69                       # Row buffer hit rate for writes
system.mem_ctrls2.avgGap                    221549.59                       # Average gap between requests
system.mem_ctrls2.pageHitRate                   71.13                       # Row buffer hit rate, read and write combined
system.mem_ctrls2.memoryStateTime::IDLE   17161191250                       # Time in different power states
system.mem_ctrls2.memoryStateTime::REF     3719040000                       # Time in different power states
system.mem_ctrls2.memoryStateTime::PRE_PDN            0                       # Time in different power states
system.mem_ctrls2.memoryStateTime::ACT    90494696250                       # Time in different power states
system.mem_ctrls2.memoryStateTime::ACT_PDN            0                       # Time in different power states
system.mem_ctrls2.actEnergy::0              555962400                       # Energy for activate commands per rank (pJ)
system.mem_ctrls2.actEnergy::1              541258200                       # Energy for activate commands per rank (pJ)
system.mem_ctrls2.preEnergy::0              303352500                       # Energy for precharge commands per rank (pJ)
system.mem_ctrls2.preEnergy::1              295329375                       # Energy for precharge commands per rank (pJ)
system.mem_ctrls2.readEnergy::0            1265979000                       # Energy for read commands per rank (pJ)
system.mem_ctrls2.readEnergy::1            1253935800                       # Energy for read commands per rank (pJ)
system.mem_ctrls2.writeEnergy::0            583446240                       # Energy for write commands per rank (pJ)
system.mem_ctrls2.writeEnergy::1            580536720                       # Energy for write commands per rank (pJ)
system.mem_ctrls2.refreshEnergy::0         7274442240                       # Energy for refresh commands per rank (pJ)
system.mem_ctrls2.refreshEnergy::1         7274442240                       # Energy for refresh commands per rank (pJ)
system.mem_ctrls2.actBackEnergy::0        49227053355                       # Energy for active background per rank (pJ)
system.mem_ctrls2.actBackEnergy::1        48262186710                       # Energy for active background per rank (pJ)
system.mem_ctrls2.preBackEnergy::0        23643242250                       # Energy for precharge background per rank (pJ)
system.mem_ctrls2.preBackEnergy::1        24489616500                       # Energy for precharge background per rank (pJ)
system.mem_ctrls2.totalEnergy::0          82853477985                       # Total energy per rank (pJ)
system.mem_ctrls2.totalEnergy::1          82697305545                       # Total energy per rank (pJ)
system.mem_ctrls2.averagePower::0          743.915974                       # Core power per rank (mW)
system.mem_ctrls2.averagePower::1          742.513750                       # Core power per rank (mW)
system.mem_ctrls3.bytes_read::ruby.dir_cntrl3     20651392                       # Number of bytes read from this memory
system.mem_ctrls3.bytes_read::total          20651392                       # Number of bytes read from this memory
system.mem_ctrls3.bytes_written::ruby.dir_cntrl3     11491584                       # Number of bytes written to this memory
system.mem_ctrls3.bytes_written::total       11491584                       # Number of bytes written to this memory
system.mem_ctrls3.num_reads::ruby.dir_cntrl3       322678                       # Number of read requests responded to by this memory
system.mem_ctrls3.num_reads::total             322678                       # Number of read requests responded to by this memory
system.mem_ctrls3.num_writes::ruby.dir_cntrl3       179556                       # Number of write requests responded to by this memory
system.mem_ctrls3.num_writes::total            179556                       # Number of write requests responded to by this memory
system.mem_ctrls3.bw_read::ruby.dir_cntrl3    185418645                       # Total read bandwidth from this memory (bytes/s)
system.mem_ctrls3.bw_read::total            185418645                       # Total read bandwidth from this memory (bytes/s)
system.mem_ctrls3.bw_write::ruby.dir_cntrl3    103177255                       # Write bandwidth from this memory (bytes/s)
system.mem_ctrls3.bw_write::total           103177255                       # Write bandwidth from this memory (bytes/s)
system.mem_ctrls3.bw_total::ruby.dir_cntrl3    288595900                       # Total bandwidth to/from this memory (bytes/s)
system.mem_ctrls3.bw_total::total           288595900                       # Total bandwidth to/from this memory (bytes/s)
system.mem_ctrls3.readReqs                     322679                       # Number of read requests accepted
system.mem_ctrls3.writeReqs                    179556                       # Number of write requests accepted
system.mem_ctrls3.readBursts                   322679                       # Number of DRAM read bursts, including those serviced by the write queue
system.mem_ctrls3.writeBursts                  179556                       # Number of DRAM write bursts, including those merged in the write queue
system.mem_ctrls3.bytesReadDRAM              20650752                       # Total number of bytes read from DRAM
system.mem_ctrls3.bytesReadWrQ                    704                       # Total number of bytes read from write queue
system.mem_ctrls3.bytesWritten               11491456                       # Total number of bytes written to DRAM
system.mem_ctrls3.bytesReadSys               20651456                       # Total read bytes from the system interface side
system.mem_ctrls3.bytesWrittenSys            11491584                       # Total written bytes from the system interface side
system.mem_ctrls3.servicedByWrQ                    11                       # Number of DRAM read bursts serviced by the write queue
system.mem_ctrls3.mergedWrBursts                    0                       # Number of DRAM write bursts merged with an existing one
system.mem_ctrls3.neitherReadNorWriteReqs            0                       # Number of requests that are neither read nor write
system.mem_ctrls3.perBankRdBursts::0            19889                       # Per bank write bursts
system.mem_ctrls3.perBankRdBursts::1            20590                       # Per bank write bursts
system.mem_ctrls3.perBankRdBursts::2            20007                       # Per bank write bursts
system.mem_ctrls3.perBankRdBursts::3            20446                       # Per bank write bursts
system.mem_ctrls3.perBankRdBursts::4            20057                       # Per bank write bursts
system.mem_ctrls3.perBankRdBursts::5            20503                       # Per bank write bursts
system.mem_ctrls3.perBankRdBursts::6            20203                       # Per bank write bursts
system.mem_ctrls3.perBankRdBursts::7            20331                       # Per bank write bursts
system.mem_ctrls3.perBankRdBursts::8            20239                       # Per bank write bursts
system.mem_ctrls3.perBankRdBursts::9            20399                       # Per bank write bursts
system.mem_ctrls3.perBankRdBursts::10           20215                       # Per bank write bursts
system.mem_ctrls3.perBankRdBursts::11           20451                       # Per bank write bursts
system.mem_ctrls3.perBankRdBursts::12           19776                       # Per bank write bursts
system.mem_ctrls3.perBankRdBursts::13           19687                       # Per bank write bursts
system.mem_ctrls3.perBankRdBursts::14           19924                       # Per bank write bursts
system.mem_ctrls3.perBankRdBursts::15           19951                       # Per bank write bursts
system.mem_ctrls3.perBankWrBursts::0            11105                       # Per bank write bursts
system.mem_ctrls3.perBankWrBursts::1            11248                       # Per bank write bursts
system.mem_ctrls3.perBankWrBursts::2            11263                       # Per bank write bursts
system.mem_ctrls3.perBankWrBursts::3            11250                       # Per bank write bursts
system.mem_ctrls3.perBankWrBursts::4            11209                       # Per bank write bursts
system.mem_ctrls3.perBankWrBursts::5            11505                       # Per bank write bursts
system.mem_ctrls3.perBankWrBursts::6            11140                       # Per bank write bursts
system.mem_ctrls3.perBankWrBursts::7            11264                       # Per bank write bursts
system.mem_ctrls3.perBankWrBursts::8            11464                       # Per bank write bursts
system.mem_ctrls3.perBankWrBursts::9            11329                       # Per bank write bursts
system.mem_ctrls3.perBankWrBursts::10           11113                       # Per bank write bursts
system.mem_ctrls3.perBankWrBursts::11           11316                       # Per bank write bursts
system.mem_ctrls3.perBankWrBursts::12           10960                       # Per bank write bursts
system.mem_ctrls3.perBankWrBursts::13           10903                       # Per bank write bursts
system.mem_ctrls3.perBankWrBursts::14           11294                       # Per bank write bursts
system.mem_ctrls3.perBankWrBursts::15           11191                       # Per bank write bursts
system.mem_ctrls3.numRdRetry                        0                       # Number of times read queue was full causing retry
system.mem_ctrls3.numWrRetry                      856                       # Number of times write queue was full causing retry
system.mem_ctrls3.totGap                 111376362500                       # Total gap between requests
system.mem_ctrls3.readPktSize::0                    0                       # Read request sizes (log2)
system.mem_ctrls3.readPktSize::1                    0                       # Read request sizes (log2)
system.mem_ctrls3.readPktSize::2                    0                       # Read request sizes (log2)
system.mem_ctrls3.readPktSize::3                    0                       # Read request sizes (log2)
system.mem_ctrls3.readPktSize::4                    0                       # Read request sizes (log2)
system.mem_ctrls3.readPktSize::5                    0                       # Read request sizes (log2)
system.mem_ctrls3.readPktSize::6               322679                       # Read request sizes (log2)
system.mem_ctrls3.writePktSize::0                   0                       # Write request sizes (log2)
system.mem_ctrls3.writePktSize::1                   0                       # Write request sizes (log2)
system.mem_ctrls3.writePktSize::2                   0                       # Write request sizes (log2)
system.mem_ctrls3.writePktSize::3                   0                       # Write request sizes (log2)
system.mem_ctrls3.writePktSize::4                   0                       # Write request sizes (log2)
system.mem_ctrls3.writePktSize::5                   0                       # Write request sizes (log2)
system.mem_ctrls3.writePktSize::6              179556                       # Write request sizes (log2)
system.mem_ctrls3.rdQLenPdf::0                 166329                       # What read queue length does an incoming req see
system.mem_ctrls3.rdQLenPdf::1                  46545                       # What read queue length does an incoming req see
system.mem_ctrls3.rdQLenPdf::2                  34686                       # What read queue length does an incoming req see
system.mem_ctrls3.rdQLenPdf::3                  22936                       # What read queue length does an incoming req see
system.mem_ctrls3.rdQLenPdf::4                  15448                       # What read queue length does an incoming req see
system.mem_ctrls3.rdQLenPdf::5                  10977                       # What read queue length does an incoming req see
system.mem_ctrls3.rdQLenPdf::6                   8054                       # What read queue length does an incoming req see
system.mem_ctrls3.rdQLenPdf::7                   5611                       # What read queue length does an incoming req see
system.mem_ctrls3.rdQLenPdf::8                   3740                       # What read queue length does an incoming req see
system.mem_ctrls3.rdQLenPdf::9                   2604                       # What read queue length does an incoming req see
system.mem_ctrls3.rdQLenPdf::10                  1696                       # What read queue length does an incoming req see
system.mem_ctrls3.rdQLenPdf::11                  1123                       # What read queue length does an incoming req see
system.mem_ctrls3.rdQLenPdf::12                   760                       # What read queue length does an incoming req see
system.mem_ctrls3.rdQLenPdf::13                   572                       # What read queue length does an incoming req see
system.mem_ctrls3.rdQLenPdf::14                   425                       # What read queue length does an incoming req see
system.mem_ctrls3.rdQLenPdf::15                   282                       # What read queue length does an incoming req see
system.mem_ctrls3.rdQLenPdf::16                   215                       # What read queue length does an incoming req see
system.mem_ctrls3.rdQLenPdf::17                   162                       # What read queue length does an incoming req see
system.mem_ctrls3.rdQLenPdf::18                   140                       # What read queue length does an incoming req see
system.mem_ctrls3.rdQLenPdf::19                   110                       # What read queue length does an incoming req see
system.mem_ctrls3.rdQLenPdf::20                    93                       # What read queue length does an incoming req see
system.mem_ctrls3.rdQLenPdf::21                    73                       # What read queue length does an incoming req see
system.mem_ctrls3.rdQLenPdf::22                    48                       # What read queue length does an incoming req see
system.mem_ctrls3.rdQLenPdf::23                    25                       # What read queue length does an incoming req see
system.mem_ctrls3.rdQLenPdf::24                    11                       # What read queue length does an incoming req see
[...]
system.ruby.L2Cache_Controller.I_I.Ack_all::total        15083                      
system.ruby.L2Cache_Controller.S_I.Ack   |           0      0.00%      0.00% |           0      0.00%      0.00% |           0      0.00%      0.00% |           0      0.00%      0.00% |           0      0.00%      0.00% |           0      0.00%      0.00% |           0      0.00%      0.00% |           0      0.00%      0.00% |           0      0.00%      0.00% |           0      0.00%      0.00% |           0      0.00%      0.00% |           0      0.00%      0.00% |           0      0.00%      0.00% |           0      0.00%      0.00% |           0      0.00%      0.00% |           0      0.00%      0.00% |           0      0.00%      0.00% |           0      0.00%      0.00% |           0      0.00%      0.00% |           0      0.00%      0.00% |           0      0.00%      0.00% |           0      0.00%      0.00% |           0      0.00%      0.00% |           0      0.00%      0.00% |           0      0.00%      0.00% |           2    100.00%    100.00% |           0      0.00%    100.00% |           0      0.00%    100.00% |           0      0.00%    100.00% |           0      0.00%    100.00% |           0      0.00%    100.00% |           0      0.00%    100.00%
system.ruby.L2Cache_Controller.S_I.Ack::total            2                      
system.ruby.L2Cache_Controller.S_I.Ack_all |           0      0.00%      0.00% |           2     11.11%     11.11% |           1      5.56%     16.67% |           1      5.56%     22.22% |           1      5.56%     27.78% |           2     11.11%     38.89% |           1      5.56%     44.44% |           0      0.00%     44.44% |           0      0.00%     44.44% |           1      5.56%     50.00% |           1      5.56%     55.56% |           0      0.00%     55.56% |           1      5.56%     61.11% |           0      0.00%     61.11% |           1      5.56%     66.67% |           0      0.00%     66.67% |           0      0.00%     66.67% |           0      0.00%     66.67% |           1      5.56%     72.22% |           0      0.00%     72.22% |           0      0.00%     72.22% |           0      0.00%     72.22% |           0      0.00%     72.22% |           0      0.00%     72.22% |           1      5.56%     77.78% |           3     16.67%     94.44% |           0      0.00%     94.44% |           0      0.00%     94.44% |           0      0.00%     94.44% |           0      0.00%     94.44% |           0      0.00%     94.44% |           1      5.56%    100.00%
system.ruby.L2Cache_Controller.S_I.Ack_all::total           18                      
system.ruby.L2Cache_Controller.ISS.Mem_Data |       24651      4.24%      4.24% |       17966      3.09%      7.34% |       18032      3.10%     10.44% |       17963      3.09%     13.54% |       17949      3.09%     16.63% |       17954      3.09%     19.72% |       17934      3.09%     22.81% |       17938      3.09%     25.90% |       17963      3.09%     28.99% |       17963      3.09%     32.08% |       18044      3.11%     35.19% |       17919      3.09%     38.27% |       17941      3.09%     41.36% |       17956      3.09%     44.45% |       17959      3.09%     47.55% |       17892      3.08%     50.63% |       17899      3.08%     53.71% |       17880      3.08%     56.79% |       17918      3.09%     59.87% |       17893      3.08%     62.96% |       17931      3.09%     66.04% |       17960      3.09%     69.14% |       17987      3.10%     72.23% |       17889      3.08%     75.31% |       17915      3.08%     78.40% |       17916      3.08%     81.48% |       17919      3.09%     84.57% |       17871      3.08%     87.65% |       17943      3.09%     90.73% |       17893      3.08%     93.82% |       17900      3.08%     96.90% |       18016      3.10%    100.00%
system.ruby.L2Cache_Controller.ISS.Mem_Data::total       580754                      
system.ruby.L2Cache_Controller.IS.Mem_Data |         484      3.21%      3.21% |         424      2.81%      6.02% |         447      2.96%      8.98% |         430      2.85%     11.83% |         435      2.88%     14.72% |         418      2.77%     17.49% |         435      2.88%     20.37% |         483      3.20%     23.57% |         465      3.08%     26.66% |         460      3.05%     29.71% |         478      3.17%     32.88% |         474      3.14%     36.02% |         513      3.40%     39.42% |         497      3.29%     42.71% |         489      3.24%     45.96% |         494      3.27%     49.23% |         513      3.40%     52.63% |         509      3.37%     56.01% |         500      3.31%     59.32% |         465      3.08%     62.40% |         451      2.99%     65.39% |         490      3.25%     68.64% |         451      2.99%     71.63% |         458      3.04%     74.67% |         488      3.24%     77.90% |         524      3.47%     81.38% |         499      3.31%     84.69% |         448      2.97%     87.66% |         472      3.13%     90.78% |         475      3.15%     93.93% |         474      3.14%     97.08% |         441      2.92%    100.00%
system.ruby.L2Cache_Controller.IS.Mem_Data::total        15084                      
system.ruby.L2Cache_Controller.IM.Mem_Data |       22017      3.13%      3.13% |       21951      3.12%      6.26% |       21955      3.12%      9.38% |       21960      3.13%     12.51% |       21940      3.12%     15.63% |       21951      3.12%     18.76% |       21951      3.12%     21.88% |       21943      3.12%     25.00% |       21963      3.13%     28.13% |       21954      3.12%     31.25% |       21938      3.12%     34.38% |       21963      3.13%     37.50% |       21951      3.12%     40.63% |       21943      3.12%     43.75% |       21941      3.12%     46.87% |       21941      3.12%     50.00% |       21950      3.12%     53.12% |       21961      3.13%     56.25% |       21958      3.13%     59.37% |       21950      3.12%     62.50% |       21972      3.13%     65.62% |       21986      3.13%     68.75% |       21944      3.12%     71.88% |       21950      3.12%     75.00% |       21960      3.13%     78.13% |       21950      3.12%     81.25% |       21964      3.13%     84.38% |       21951      3.12%     87.50% |       21947      3.12%     90.62% |       21953      3.12%     93.75% |       21972      3.13%     96.88% |       21946      3.12%    100.00%
system.ruby.L2Cache_Controller.IM.Mem_Data::total       702576                      
system.ruby.L2Cache_Controller.SS_MB.Exclusive_Unblock |           2      4.35%      4.35% |           4      8.70%     13.04% |           6     13.04%     26.09% |           5     10.87%     36.96% |           1      2.17%     39.13% |           0      0.00%     39.13% |           0      0.00%     39.13% |           0      0.00%     39.13% |           0      0.00%     39.13% |           1      2.17%     41.30% |           1      2.17%     43.48% |           0      0.00%     43.48% |           4      8.70%     52.17% |           0      0.00%     52.17% |           5     10.87%     63.04% |           0      0.00%     63.04% |           0      0.00%     63.04% |           0      0.00%     63.04% |           9     19.57%     82.61% |           2      4.35%     86.96% |           0      0.00%     86.96% |           0      0.00%     86.96% |           0      0.00%     86.96% |           0      0.00%     86.96% |           1      2.17%     89.13% |           0      0.00%     89.13% |           1      2.17%     91.30% |           1      2.17%     93.48% |           2      4.35%     97.83% |           0      0.00%     97.83% |           1      2.17%    100.00% |           0      0.00%    100.00%
system.ruby.L2Cache_Controller.SS_MB.Exclusive_Unblock::total           46                      
system.ruby.L2Cache_Controller.MT_MB.L1_PUTX |           3      6.67%      6.67% |           0      0.00%      6.67% |           2      4.44%     11.11% |           1      2.22%     13.33% |           2      4.44%     17.78% |           1      2.22%     20.00% |           0      0.00%     20.00% |           1      2.22%     22.22% |           3      6.67%     28.89% |           2      4.44%     33.33% |           1      2.22%     35.56% |           0      0.00%     35.56% |           1      2.22%     37.78% |           2      4.44%     42.22% |           1      2.22%     44.44% |           1      2.22%     46.67% |           0      0.00%     46.67% |           2      4.44%     51.11% |           0      0.00%     51.11% |           0      0.00%     51.11% |           4      8.89%     60.00% |           3      6.67%     66.67% |           0      0.00%     66.67% |           2      4.44%     71.11% |           1      2.22%     73.33% |           1      2.22%     75.56% |           2      4.44%     80.00% |           2      4.44%     84.44% |           3      6.67%     91.11% |           3      6.67%     97.78% |           1      2.22%    100.00% |           0      0.00%    100.00%
system.ruby.L2Cache_Controller.MT_MB.L1_PUTX::total           45                      
system.ruby.L2Cache_Controller.MT_MB.L1_PUTX_old |           0      0.00%      0.00% |           0      0.00%      0.00% |           0      0.00%      0.00% |           0      0.00%      0.00% |           0      0.00%      0.00% |           0      0.00%      0.00% |           0      0.00%      0.00% |           0      0.00%      0.00% |           0      0.00%      0.00% |           0      0.00%      0.00% |           0      0.00%      0.00% |           0      0.00%      0.00% |           0      0.00%      0.00% |           0      0.00%      0.00% |           0      0.00%      0.00% |           0      0.00%      0.00% |           0      0.00%      0.00% |           0      0.00%      0.00% |           0      0.00%      0.00% |           0      0.00%      0.00% |           0      0.00%      0.00% |           0      0.00%      0.00% |           0      0.00%      0.00% |           1     33.33%     33.33% |           0      0.00%     33.33% |           0      0.00%     33.33% |           0      0.00%     33.33% |           1     33.33%     66.67% |           0      0.00%     66.67% |           0      0.00%     66.67% |           0      0.00%     66.67% |           1     33.33%    100.00%
system.ruby.L2Cache_Controller.MT_MB.L1_PUTX_old::total            3                      
system.ruby.L2Cache_Controller.MT_MB.Exclusive_Unblock |      155637      5.61%      5.61% |       85407      3.08%      8.69% |       84014      3.03%     11.72% |       84921      3.06%     14.79% |       84141      3.03%     17.82% |       83735      3.02%     20.84% |       83706      3.02%     23.86% |       83382      3.01%     26.87% |       83566      3.01%     29.88% |       84598      3.05%     32.93% |       85876      3.10%     36.03% |       85046      3.07%     39.10% |       84685      3.05%     42.15% |       83431      3.01%     45.16% |       82845      2.99%     48.15% |       83185      3.00%     51.15% |       84263      3.04%     54.19% |       83778      3.02%     57.21% |       84341      3.04%     60.25% |       84402      3.04%     63.30% |       84319      3.04%     66.34% |       86798      3.13%     69.47% |       84620      3.05%     72.52% |       83735      3.02%     75.54% |       83891      3.03%     78.57% |       84342      3.04%     81.61% |       83956      3.03%     84.64% |       83621      3.02%     87.65% |       84166      3.04%     90.69% |       83664      3.02%     93.71% |       86399      3.12%     96.82% |       88109      3.18%    100.00%
system.ruby.L2Cache_Controller.MT_MB.Exclusive_Unblock::total      2772579                      
system.ruby.L2Cache_Controller.MT_IIB.WB_Data |           0      0.00%      0.00% |           0      0.00%      0.00% |           0      0.00%      0.00% |           0      0.00%      0.00% |           0      0.00%      0.00% |           0      0.00%      0.00% |           0      0.00%      0.00% |           0      0.00%      0.00% |           0      0.00%      0.00% |           0      0.00%      0.00% |           0      0.00%      0.00% |           0      0.00%      0.00% |           0      0.00%      0.00% |           0      0.00%      0.00% |           0      0.00%      0.00% |           0      0.00%      0.00% |           0      0.00%      0.00% |           0      0.00%      0.00% |           0      0.00%      0.00% |           0      0.00%      0.00% |           0      0.00%      0.00% |           0      0.00%      0.00% |           0      0.00%      0.00% |           0      0.00%      0.00% |           0      0.00%      0.00% |           2    100.00%    100.00% |           0      0.00%    100.00% |           0      0.00%    100.00% |           0      0.00%    100.00% |           0      0.00%    100.00% |           0      0.00%    100.00% |           0      0.00%    100.00%
system.ruby.L2Cache_Controller.MT_IIB.WB_Data::total            2                      
system.ruby.L2Cache_Controller.MT_SB.Unblock |           0      0.00%      0.00% |           0      0.00%      0.00% |           0      0.00%      0.00% |           0      0.00%      0.00% |           0      0.00%      0.00% |           0      0.00%      0.00% |           0      0.00%      0.00% |           0      0.00%      0.00% |           0      0.00%      0.00% |           0      0.00%      0.00% |           0      0.00%      0.00% |           0      0.00%      0.00% |           0      0.00%      0.00% |           0      0.00%      0.00% |           0      0.00%      0.00% |           0      0.00%      0.00% |           0      0.00%      0.00% |           0      0.00%      0.00% |           0      0.00%      0.00% |           0      0.00%      0.00% |           0      0.00%      0.00% |           0      0.00%      0.00% |           0      0.00%      0.00% |           0      0.00%      0.00% |           0      0.00%      0.00% |           2    100.00%    100.00% |           0      0.00%    100.00% |           0      0.00%    100.00% |           0      0.00%    100.00% |           0      0.00%    100.00% |           0      0.00%    100.00% |           0      0.00%    100.00%
system.ruby.L2Cache_Controller.MT_SB.Unblock::total            2                      
system.ruby.SimicsNetworkPortInterface_Controller.MessageSend |      435395     21.37%     21.37% |     1018542     50.00%     71.37% |      583147     28.63%    100.00% |           0      0.00%    100.00% |           0      0.00%    100.00% |           0      0.00%    100.00% |           0      0.00%    100.00% |           0      0.00%    100.00% |           0      0.00%    100.00% |           0      0.00%    100.00% |           0      0.00%    100.00% |           0      0.00%    100.00% |           0      0.00%    100.00% |           0      0.00%    100.00% |           0      0.00%    100.00% |           0      0.00%    100.00% |           0      0.00%    100.00% |           0      0.00%    100.00% |           0      0.00%    100.00% |           0      0.00%    100.00% |           0      0.00%    100.00% |           0      0.00%    100.00% |           0      0.00%    100.00% |           0      0.00%    100.00% |           0      0.00%    100.00% |           0      0.00%    100.00% |           0      0.00%    100.00% |           0      0.00%    100.00% |           0      0.00%    100.00% |           0      0.00%    100.00% |           0      0.00%    100.00% |           0      0.00%    100.00%
system.ruby.SimicsNetworkPortInterface_Controller.MessageSend::total      2037084                      
system.ruby.SimicsNetworkPortInterface_Controller.MessageRecv |      435395     21.37%     21.37% |     1018542     50.00%     71.37% |      583147     28.63%    100.00% |           0      0.00%    100.00% |           0      0.00%    100.00% |           0      0.00%    100.00% |           0      0.00%    100.00% |           0      0.00%    100.00% |           0      0.00%    100.00% |           0      0.00%    100.00% |           0      0.00%    100.00% |           0      0.00%    100.00% |           0      0.00%    100.00% |           0      0.00%    100.00% |           0      0.00%    100.00% |           0      0.00%    100.00% |           0      0.00%    100.00% |           0      0.00%    100.00% |           0      0.00%    100.00% |           0      0.00%    100.00% |           0      0.00%    100.00% |           0      0.00%    100.00% |           0      0.00%    100.00% |           0      0.00%    100.00% |           0      0.00%    100.00% |           0      0.00%    100.00% |           0      0.00%    100.00% |           0      0.00%    100.00% |           0      0.00%    100.00% |           0      0.00%    100.00% |           0      0.00%    100.00% |           0      0.00%    100.00%
system.ruby.SimicsNetworkPortInterface_Controller.MessageRecv::total      2037084                      
system.ruby.SimicsNetworkPortInterface_Controller.A.MessageSend |      435395     21.37%     21.37% |     1018542     50.00%     71.37% |      583147     28.63%    100.00% |           0      0.00%    100.00% |           0      0.00%    100.00% |           0      0.00%    100.00% |           0      0.00%    100.00% |           0      0.00%    100.00% |           0      0.00%    100.00% |           0      0.00%    100.00% |           0      0.00%    100.00% |           0      0.00%    100.00% |           0      0.00%    100.00% |           0      0.00%    100.00% |           0      0.00%    100.00% |           0      0.00%    100.00% |           0      0.00%    100.00% |           0      0.00%    100.00% |           0      0.00%    100.00% |           0      0.00%    100.00% |           0      0.00%    100.00% |           0      0.00%    100.00% |           0      0.00%    100.00% |           0      0.00%    100.00% |           0      0.00%    100.00% |           0      0.00%    100.00% |           0      0.00%    100.00% |           0      0.00%    100.00% |           0      0.00%    100.00% |           0      0.00%    100.00% |           0      0.00%    100.00% |           0      0.00%    100.00%
system.ruby.SimicsNetworkPortInterface_Controller.A.MessageSend::total      2037084                      
system.ruby.SimicsNetworkPortInterface_Controller.A.MessageRecv |      435395     21.37%     21.37% |     1018542     50.00%     71.37% |      583147     28.63%    100.00% |           0      0.00%    100.00% |           0      0.00%    100.00% |           0      0.00%    100.00% |           0      0.00%    100.00% |           0      0.00%    100.00% |           0      0.00%    100.00% |           0      0.00%    100.00% |           0      0.00%    100.00% |           0      0.00%    100.00% |           0      0.00%    100.00% |           0      0.00%    100.00% |           0      0.00%    100.00% |           0      0.00%    100.00% |           0      0.00%    100.00% |           0      0.00%    100.00% |           0      0.00%    100.00% |           0      0.00%    100.00% |           0      0.00%    100.00% |           0      0.00%    100.00% |           0      0.00%    100.00% |           0      0.00%    100.00% |           0      0.00%    100.00% |           0      0.00%    100.00% |           0      0.00%    100.00% |           0      0.00%    100.00% |           0      0.00%    100.00% |           0      0.00%    100.00% |           0      0.00%    100.00% |           0      0.00%    100.00%
system.ruby.SimicsNetworkPortInterface_Controller.A.MessageRecv::total      2037084                      
system.switch_cpus.kern.inst.arm                    0                       # number of arm instructions executed
system.switch_cpus.kern.inst.quiesce                0                       # number of quiesce instructions executed

---------- End Simulation Statistics   ----------
