
---------- Begin Simulation Statistics ----------
sim_seconds                                  0.122914                       # Number of seconds simulated
sim_ticks                                122913591500                       # Number of ticks simulated
final_tick                               5299081670000                       # Number of ticks from beginning of simulation (restored from checkpoints and never reset)
sim_freq                                 1000000000000                       # Frequency of simulated ticks
host_inst_rate                                  22535                       # Simulator instruction rate (inst/s)
host_op_rate                                    39561                       # Simulator op (including micro ops) rate (op/s)
host_tick_rate                               47267243                       # Simulator tick rate (ticks/s)
host_mem_usage                                6336264                       # Number of bytes of host memory used
host_seconds                                  2600.40                       # Real time elapsed on the host
sim_insts                                    58599339                       # Number of instructions simulated
sim_ops                                     102873136                       # Number of ops (including micro ops) simulated
system.voltage_domain.voltage                       1                       # Voltage in Volts
system.clk_domain.clock                           500                       # Clock period in ticks
system.mem_ctrls0.bytes_read::ruby.dir_cntrl0     41189120                       # Number of bytes read from this memory
system.mem_ctrls0.bytes_read::total          41189120                       # Number of bytes read from this memory
system.mem_ctrls0.bytes_written::ruby.dir_cntrl0     19367488                       # Number of bytes written to this memory
system.mem_ctrls0.bytes_written::total       19367488                       # Number of bytes written to this memory
system.mem_ctrls0.num_reads::ruby.dir_cntrl0       643580                       # Number of read requests responded to by this memory
system.mem_ctrls0.num_reads::total             643580                       # Number of read requests responded to by this memory
system.mem_ctrls0.num_writes::ruby.dir_cntrl0       302617                       # Number of write requests responded to by this memory
system.mem_ctrls0.num_writes::total            302617                       # Number of write requests responded to by this memory
system.mem_ctrls0.bw_read::ruby.dir_cntrl0    335106309                       # Total read bandwidth from this memory (bytes/s)
system.mem_ctrls0.bw_read::total            335106309                       # Total read bandwidth from this memory (bytes/s)
system.mem_ctrls0.bw_write::ruby.dir_cntrl0    157569946                       # Write bandwidth from this memory (bytes/s)
system.mem_ctrls0.bw_write::total           157569946                       # Write bandwidth from this memory (bytes/s)
system.mem_ctrls0.bw_total::ruby.dir_cntrl0    492676255                       # Total bandwidth to/from this memory (bytes/s)
system.mem_ctrls0.bw_total::total           492676255                       # Total bandwidth to/from this memory (bytes/s)
system.mem_ctrls0.readReqs                     643580                       # Number of read requests accepted
system.mem_ctrls0.writeReqs                    302617                       # Number of write requests accepted
system.mem_ctrls0.readBursts                   643580                       # Number of DRAM read bursts, including those serviced by the write queue
system.mem_ctrls0.writeBursts                  302617                       # Number of DRAM write bursts, including those merged in the write queue
system.mem_ctrls0.bytesReadDRAM              41156352                       # Total number of bytes read from DRAM
system.mem_ctrls0.bytesReadWrQ                  32768                       # Total number of bytes read from write queue
system.mem_ctrls0.bytesWritten               19367424                       # Total number of bytes written to DRAM
system.mem_ctrls0.bytesReadSys               41189120                       # Total read bytes from the system interface side
system.mem_ctrls0.bytesWrittenSys            19367488                       # Total written bytes from the system interface side
system.mem_ctrls0.servicedByWrQ                   512                       # Number of DRAM read bursts serviced by the write queue
system.mem_ctrls0.mergedWrBursts                    0                       # Number of DRAM write bursts merged with an existing one
system.mem_ctrls0.neitherReadNorWriteReqs            0                       # Number of requests that are neither read nor write
system.mem_ctrls0.perBankRdBursts::0            39808                       # Per bank write bursts
system.mem_ctrls0.perBankRdBursts::1            40020                       # Per bank write bursts
system.mem_ctrls0.perBankRdBursts::2            40317                       # Per bank write bursts
system.mem_ctrls0.perBankRdBursts::3            40895                       # Per bank write bursts
system.mem_ctrls0.perBankRdBursts::4            39722                       # Per bank write bursts
system.mem_ctrls0.perBankRdBursts::5            39787                       # Per bank write bursts
system.mem_ctrls0.perBankRdBursts::6            40964                       # Per bank write bursts
system.mem_ctrls0.perBankRdBursts::7            40874                       # Per bank write bursts
system.mem_ctrls0.perBankRdBursts::8            39499                       # Per bank write bursts
system.mem_ctrls0.perBankRdBursts::9            39738                       # Per bank write bursts
system.mem_ctrls0.perBankRdBursts::10           40162                       # Per bank write bursts
system.mem_ctrls0.perBankRdBursts::11           40925                       # Per bank write bursts
system.mem_ctrls0.perBankRdBursts::12           39604                       # Per bank write bursts
system.mem_ctrls0.perBankRdBursts::13           39623                       # Per bank write bursts
system.mem_ctrls0.perBankRdBursts::14           40503                       # Per bank write bursts
system.mem_ctrls0.perBankRdBursts::15           40627                       # Per bank write bursts
system.mem_ctrls0.perBankWrBursts::0            18627                       # Per bank write bursts
system.mem_ctrls0.perBankWrBursts::1            18949                       # Per bank write bursts
system.mem_ctrls0.perBankWrBursts::2            19097                       # Per bank write bursts
system.mem_ctrls0.perBankWrBursts::3            19213                       # Per bank write bursts
system.mem_ctrls0.perBankWrBursts::4            18790                       # Per bank write bursts
system.mem_ctrls0.perBankWrBursts::5            18891                       # Per bank write bursts
system.mem_ctrls0.perBankWrBursts::6            19219                       # Per bank write bursts
system.mem_ctrls0.perBankWrBursts::7            19160                       # Per bank write bursts
system.mem_ctrls0.perBankWrBursts::8            18493                       # Per bank write bursts
system.mem_ctrls0.perBankWrBursts::9            18853                       # Per bank write bursts
system.mem_ctrls0.perBankWrBursts::10           18942                       # Per bank write bursts
system.mem_ctrls0.perBankWrBursts::11           19058                       # Per bank write bursts
system.mem_ctrls0.perBankWrBursts::12           18598                       # Per bank write bursts
system.mem_ctrls0.perBankWrBursts::13           18688                       # Per bank write bursts
system.mem_ctrls0.perBankWrBursts::14           19138                       # Per bank write bursts
system.mem_ctrls0.perBankWrBursts::15           18900                       # Per bank write bursts
system.mem_ctrls0.numRdRetry                     5225                       # Number of times read queue was full causing retry
system.mem_ctrls0.numWrRetry                     6149                       # Number of times write queue was full causing retry
system.mem_ctrls0.totGap                 122913091500                       # Total gap between requests
system.mem_ctrls0.readPktSize::0                    0                       # Read request sizes (log2)
system.mem_ctrls0.readPktSize::1                    0                       # Read request sizes (log2)
system.mem_ctrls0.readPktSize::2                    0                       # Read request sizes (log2)
system.mem_ctrls0.readPktSize::3                    0                       # Read request sizes (log2)
system.mem_ctrls0.readPktSize::4                    0                       # Read request sizes (log2)
system.mem_ctrls0.readPktSize::5                    0                       # Read request sizes (log2)
system.mem_ctrls0.readPktSize::6               643580                       # Read request sizes (log2)
system.mem_ctrls0.writePktSize::0                   0                       # Write request sizes (log2)
system.mem_ctrls0.writePktSize::1                   0                       # Write request sizes (log2)
system.mem_ctrls0.writePktSize::2                   0                       # Write request sizes (log2)
system.mem_ctrls0.writePktSize::3                   0                       # Write request sizes (log2)
system.mem_ctrls0.writePktSize::4                   0                       # Write request sizes (log2)
system.mem_ctrls0.writePktSize::5                   0                       # Write request sizes (log2)
system.mem_ctrls0.writePktSize::6              302617                       # Write request sizes (log2)
system.mem_ctrls0.rdQLenPdf::0                 210129                       # What read queue length does an incoming req see
system.mem_ctrls0.rdQLenPdf::1                  54625                       # What read queue length does an incoming req see
system.mem_ctrls0.rdQLenPdf::2                  46781                       # What read queue length does an incoming req see
system.mem_ctrls0.rdQLenPdf::3                  41608                       # What read queue length does an incoming req see
system.mem_ctrls0.rdQLenPdf::4                  36855                       # What read queue length does an incoming req see
system.mem_ctrls0.rdQLenPdf::5                  33028                       # What read queue length does an incoming req see
system.mem_ctrls0.rdQLenPdf::6                  28983                       # What read queue length does an incoming req see
system.mem_ctrls0.rdQLenPdf::7                  25215                       # What read queue length does an incoming req see
system.mem_ctrls0.rdQLenPdf::8                  21871                       # What read queue length does an incoming req see
system.mem_ctrls0.rdQLenPdf::9                  19052                       # What read queue length does an incoming req see
system.mem_ctrls0.rdQLenPdf::10                 16469                       # What read queue length does an incoming req see
system.mem_ctrls0.rdQLenPdf::11                 14188                       # What read queue length does an incoming req see
system.mem_ctrls0.rdQLenPdf::12                 12400                       # What read queue length does an incoming req see
system.mem_ctrls0.rdQLenPdf::13                 10617                       # What read queue length does an incoming req see
system.mem_ctrls0.rdQLenPdf::14                  9383                       # What read queue length does an incoming req see
system.mem_ctrls0.rdQLenPdf::15                  7919                       # What read queue length does an incoming req see
system.mem_ctrls0.rdQLenPdf::16                  6947                       # What read queue length does an incoming req see
system.mem_ctrls0.rdQLenPdf::17                  6191                       # What read queue length does an incoming req see
system.mem_ctrls0.rdQLenPdf::18                  5276                       # What read queue length does an incoming req see
system.mem_ctrls0.rdQLenPdf::19                  4731                       # What read queue length does an incoming req see
system.mem_ctrls0.rdQLenPdf::20                  4083                       # What read queue length does an incoming req see
system.mem_ctrls0.rdQLenPdf::21                  3525                       # What read queue length does an incoming req see
system.mem_ctrls0.rdQLenPdf::22                  3017                       # What read queue length does an incoming req see
system.mem_ctrls0.rdQLenPdf::23                  2684                       # What read queue length does an incoming req see
system.mem_ctrls0.rdQLenPdf::24                  2386                       # What read queue length does an incoming req see
system.mem_ctrls0.rdQLenPdf::25                  2001                       # What read queue length does an incoming req see
system.mem_ctrls0.rdQLenPdf::26                  1799                       # What read queue length does an incoming req see
system.mem_ctrls0.rdQLenPdf::27                  1554                       # What read queue length does an incoming req see
system.mem_ctrls0.rdQLenPdf::28                  1335                       # What read queue length does an incoming req see
system.mem_ctrls0.rdQLenPdf::29                  1208                       # What read queue length does an incoming req see
system.mem_ctrls0.rdQLenPdf::30                  1049                       # What read queue length does an incoming req see
system.mem_ctrls0.rdQLenPdf::31                  6159                       # What read queue length does an incoming req see
system.mem_ctrls0.wrQLenPdf::0                  48011                       # What write queue length does an incoming req see
system.mem_ctrls0.wrQLenPdf::1                  54132                       # What write queue length does an incoming req see
system.mem_ctrls0.wrQLenPdf::2                  56443                       # What write queue length does an incoming req see
system.mem_ctrls0.wrQLenPdf::3                  56797                       # What write queue length does an incoming req see
system.mem_ctrls0.wrQLenPdf::4                  56041                       # What write queue length does an incoming req see
system.mem_ctrls0.wrQLenPdf::5                  11267                       # What write queue length does an incoming req see
system.mem_ctrls0.wrQLenPdf::6                   8726                       # What write queue length does an incoming req see
system.mem_ctrls0.wrQLenPdf::7                  11200                       # What write queue length does an incoming req see
system.mem_ctrls0.bytesPerActivate::samples       307974                       # Bytes accessed per row activation
system.mem_ctrls0.bytesPerActivate::mean   196.519446                       # Bytes accessed per row activation
system.mem_ctrls0.bytesPerActivate::gmean   151.177397                       # Bytes accessed per row activation
system.mem_ctrls0.bytesPerActivate::stdev   147.387410                       # Bytes accessed per row activation
system.mem_ctrls0.bytesPerActivate::0-127       102559     33.30%     33.30% # Bytes accessed per row activation
system.mem_ctrls0.bytesPerActivate::128-255        96455     31.32%     64.62% # Bytes accessed per row activation
system.mem_ctrls0.bytesPerActivate::256-383        72761     23.63%     88.25% # Bytes accessed per row activation
system.mem_ctrls0.bytesPerActivate::384-511        18166      5.90%     94.14% # Bytes accessed per row activation
system.mem_ctrls0.bytesPerActivate::512-639        13301      4.32%     98.46% # Bytes accessed per row activation
system.mem_ctrls0.bytesPerActivate::640-767         2485      0.81%     99.27% # Bytes accessed per row activation
system.mem_ctrls0.bytesPerActivate::768-895         1224      0.40%     99.67% # Bytes accessed per row activation
system.mem_ctrls0.bytesPerActivate::896-1023          654      0.21%     99.88% # Bytes accessed per row activation
system.mem_ctrls0.bytesPerActivate::1024-1151          369      0.12%    100.00% # Bytes accessed per row activation
system.mem_ctrls0.bytesPerActivate::total       307974                       # Bytes accessed per row activation
system.mem_ctrls0.rdPerTurnAround::samples        49135                       # Reads before turning the bus around for writes
system.mem_ctrls0.rdPerTurnAround::mean     13.087738                       # Reads before turning the bus around for writes
system.mem_ctrls0.rdPerTurnAround::stdev    29.390653                       # Reads before turning the bus around for writes
system.mem_ctrls0.rdPerTurnAround::0-127        48810     99.34%     99.34% # Reads before turning the bus around for writes
system.mem_ctrls0.rdPerTurnAround::128-255          273      0.56%     99.89% # Reads before turning the bus around for writes
system.mem_ctrls0.rdPerTurnAround::256-383           29      0.06%     99.95% # Reads before turning the bus around for writes
system.mem_ctrls0.rdPerTurnAround::384-511           11      0.02%     99.98% # Reads before turning the bus around for writes
system.mem_ctrls0.rdPerTurnAround::512-639            7      0.01%     99.99% # Reads before turning the bus around for writes
system.mem_ctrls0.rdPerTurnAround::640-767            1      0.00%     99.99% # Reads before turning the bus around for writes
system.mem_ctrls0.rdPerTurnAround::768-895            2      0.00%    100.00% # Reads before turning the bus around for writes
system.mem_ctrls0.rdPerTurnAround::896-1023            1      0.00%    100.00% # Reads before turning the bus around for writes
system.mem_ctrls0.rdPerTurnAround::3968-4095            1      0.00%    100.00% # Reads before turning the bus around for writes
system.mem_ctrls0.rdPerTurnAround::total        49135                       # Reads before turning the bus around for writes
system.mem_ctrls0.wrPerTurnAround::samples        49135                       # Writes before turning the bus around for reads
system.mem_ctrls0.wrPerTurnAround::mean      6.158868                       # Writes before turning the bus around for reads
system.mem_ctrls0.wrPerTurnAround::gmean     5.825704                       # Writes before turning the bus around for reads
system.mem_ctrls0.wrPerTurnAround::stdev     2.539098                       # Writes before turning the bus around for reads
system.mem_ctrls0.wrPerTurnAround::4-7          41254     83.96%     83.96% # Writes before turning the bus around for reads
system.mem_ctrls0.wrPerTurnAround::8-11          4797      9.76%     93.72% # Writes before turning the bus around for reads
system.mem_ctrls0.wrPerTurnAround::12-15         1686      3.43%     97.15% # Writes before turning the bus around for reads
system.mem_ctrls0.wrPerTurnAround::16-19         1398      2.85%    100.00% # Writes before turning the bus around for reads
system.mem_ctrls0.wrPerTurnAround::total        49135                       # Writes before turning the bus around for reads
system.mem_ctrls0.totQLat                 44325036037                       # Total ticks spent queuing
system.mem_ctrls0.totMemAccLat            56382561037                       # Total ticks spent from burst creation until serviced by the DRAM
system.mem_ctrls0.totBusLat                3215340000                       # Total ticks spent in databus transfers
system.mem_ctrls0.avgQLat                    68927.45                       # Average queueing delay per DRAM burst
system.mem_ctrls0.avgBusLat                   5000.00                       # Average bus latency per DRAM burst
system.mem_ctrls0.avgMemAccLat               87677.45                       # Average memory access latency per DRAM burst
system.mem_ctrls0.avgRdBW                      334.84                       # Average DRAM read bandwidth in MiByte/s
system.mem_ctrls0.avgWrBW                      157.57                       # Average achieved write bandwidth in MiByte/s
system.mem_ctrls0.avgRdBWSys                   335.11                       # Average system read bandwidth in MiByte/s
system.mem_ctrls0.avgWrBWSys                   157.57                       # Average system write bandwidth in MiByte/s
system.mem_ctrls0.peakBW                     12800.00                       # Theoretical peak bandwidth in MiByte/s
system.mem_ctrls0.busUtil                        3.85                       # Data bus utilization in percentage
system.mem_ctrls0.busUtilRead                    2.62                       # Data bus utilization in percentage for reads
system.mem_ctrls0.busUtilWrite                   1.23                       # Data bus utilization in percentage for writes
system.mem_ctrls0.avgRdQLen                      1.48                       # Average read queue length when enqueuing
system.mem_ctrls0.avgWrQLen                      3.02                       # Average write queue length when enqueuing
system.mem_ctrls0.readRowHits                  470829                       # Number of row buffer hits during reads
system.mem_ctrls0.writeRowHits                 166870                       # Number of row buffer hits during writes
system.mem_ctrls0.readRowHitRate                73.22                       # Row buffer hit rate for reads
system.mem_ctrls0.writeRowHitRate               55.14                       # Row buffer hit rate for writes
system.mem_ctrls0.avgGap                    129902.22                       # Average gap between requests
system.mem_ctrls0.pageHitRate                   67.43                       # Row buffer hit rate, read and write combined
system.mem_ctrls0.memoryStateTime::IDLE   20283097750                       # Time in different power states
system.mem_ctrls0.memoryStateTime::REF     4104100000                       # Time in different power states
system.mem_ctrls0.memoryStateTime::PRE_PDN            0                       # Time in different power states
system.mem_ctrls0.memoryStateTime::ACT    98519078250                       # Time in different power states
system.mem_ctrls0.memoryStateTime::ACT_PDN            0                       # Time in different power states
system.mem_ctrls0.actEnergy::0             1171573200                       # Energy for activate commands per rank (pJ)
system.mem_ctrls0.actEnergy::1             1156543920                       # Energy for activate commands per rank (pJ)
system.mem_ctrls0.preEnergy::0              639251250                       # Energy for precharge commands per rank (pJ)
system.mem_ctrls0.preEnergy::1              631050750                       # Energy for precharge commands per rank (pJ)
system.mem_ctrls0.readEnergy::0            2514525000                       # Energy for read commands per rank (pJ)
system.mem_ctrls0.readEnergy::1            2501155800                       # Energy for read commands per rank (pJ)
system.mem_ctrls0.writeEnergy::0            984545280                       # Energy for write commands per rank (pJ)
system.mem_ctrls0.writeEnergy::1            976276800                       # Energy for write commands per rank (pJ)
system.mem_ctrls0.refreshEnergy::0         8027619600                       # Energy for refresh commands per rank (pJ)
system.mem_ctrls0.refreshEnergy::1         8027619600                       # Energy for refresh commands per rank (pJ)
system.mem_ctrls0.actBackEnergy::0        51476236020                       # Energy for active background per rank (pJ)
system.mem_ctrls0.actBackEnergy::1        51007064175                       # Energy for active background per rank (pJ)
system.mem_ctrls0.preBackEnergy::0        28589164500                       # Energy for precharge background per rank (pJ)
system.mem_ctrls0.preBackEnergy::1        29000718750                       # Energy for precharge background per rank (pJ)
system.mem_ctrls0.totalEnergy::0          93402914850                       # Total energy per rank (pJ)
system.mem_ctrls0.totalEnergy::1          93300429795                       # Total energy per rank (pJ)
system.mem_ctrls0.averagePower::0          759.952446                       # Core power per rank (mW)
system.mem_ctrls0.averagePower::1          759.118599                       # Core power per rank (mW)
system.mem_ctrls1.bytes_read::ruby.dir_cntrl1     40390592                       # Number of bytes read from this memory
system.mem_ctrls1.bytes_read::total          40390592                       # Number of bytes read from this memory
system.mem_ctrls1.bytes_written::ruby.dir_cntrl1     18740608                       # Number of bytes written to this memory
system.mem_ctrls1.bytes_written::total       18740608                       # Number of bytes written to this memory
system.mem_ctrls1.num_reads::ruby.dir_cntrl1       631103                       # Number of read requests responded to by this memory
system.mem_ctrls1.num_reads::total             631103                       # Number of read requests responded to by this memory
system.mem_ctrls1.num_writes::ruby.dir_cntrl1       292822                       # Number of write requests responded to by this memory
system.mem_ctrls1.num_writes::total            292822                       # Number of write requests responded to by this memory
system.mem_ctrls1.bw_read::ruby.dir_cntrl1    328609648                       # Total read bandwidth from this memory (bytes/s)
system.mem_ctrls1.bw_read::total            328609648                       # Total read bandwidth from this memory (bytes/s)
system.mem_ctrls1.bw_write::ruby.dir_cntrl1    152469778                       # Write bandwidth from this memory (bytes/s)
system.mem_ctrls1.bw_write::total           152469778                       # Write bandwidth from this memory (bytes/s)
system.mem_ctrls1.bw_total::ruby.dir_cntrl1    481079426                       # Total bandwidth to/from this memory (bytes/s)
system.mem_ctrls1.bw_total::total           481079426                       # Total bandwidth to/from this memory (bytes/s)
system.mem_ctrls1.readReqs                     631103                       # Number of read requests accepted
system.mem_ctrls1.writeReqs                    292822                       # Number of write requests accepted
system.mem_ctrls1.readBursts                   631103                       # Number of DRAM read bursts, including those serviced by the write queue
system.mem_ctrls1.writeBursts                  292822                       # Number of DRAM write bursts, including those merged in the write queue
system.mem_ctrls1.bytesReadDRAM              40359680                       # Total number of bytes read from DRAM
system.mem_ctrls1.bytesReadWrQ                  30912                       # Total number of bytes read from write queue
system.mem_ctrls1.bytesWritten               18740416                       # Total number of bytes written to DRAM
system.mem_ctrls1.bytesReadSys               40390592                       # Total read bytes from the system interface side
system.mem_ctrls1.bytesWrittenSys            18740608                       # Total written bytes from the system interface side
system.mem_ctrls1.servicedByWrQ                   483                       # Number of DRAM read bursts serviced by the write queue
system.mem_ctrls1.mergedWrBursts                    0                       # Number of DRAM write bursts merged with an existing one
system.mem_ctrls1.neitherReadNorWriteReqs            0                       # Number of requests that are neither read nor write
system.mem_ctrls1.perBankRdBursts::0            39176                       # Per bank write bursts
system.mem_ctrls1.perBankRdBursts::1            39237                       # Per bank write bursts
system.mem_ctrls1.perBankRdBursts::2            39480                       # Per bank write bursts
system.mem_ctrls1.perBankRdBursts::3            39804                       # Per bank write bursts
system.mem_ctrls1.perBankRdBursts::4            39222                       # Per bank write bursts
system.mem_ctrls1.perBankRdBursts::5            39004                       # Per bank write bursts
system.mem_ctrls1.perBankRdBursts::6            40492                       # Per bank write bursts
system.mem_ctrls1.perBankRdBursts::7            39894                       # Per bank write bursts
system.mem_ctrls1.perBankRdBursts::8            38845                       # Per bank write bursts
system.mem_ctrls1.perBankRdBursts::9            38923                       # Per bank write bursts
system.mem_ctrls1.perBankRdBursts::10           39351                       # Per bank write bursts
system.mem_ctrls1.perBankRdBursts::11           39912                       # Per bank write bursts
system.mem_ctrls1.perBankRdBursts::12           39117                       # Per bank write bursts
system.mem_ctrls1.perBankRdBursts::13           38769                       # Per bank write bursts
system.mem_ctrls1.perBankRdBursts::14           39654                       # Per bank write bursts
system.mem_ctrls1.perBankRdBursts::15           39740                       # Per bank write bursts
system.mem_ctrls1.perBankWrBursts::0            18133                       # Per bank write bursts
system.mem_ctrls1.perBankWrBursts::1            18277                       # Per bank write bursts
system.mem_ctrls1.perBankWrBursts::2            18558                       # Per bank write bursts
system.mem_ctrls1.perBankWrBursts::3            18542                       # Per bank write bursts
system.mem_ctrls1.perBankWrBursts::4            18298                       # Per bank write bursts
system.mem_ctrls1.perBankWrBursts::5            18225                       # Per bank write bursts
system.mem_ctrls1.perBankWrBursts::6            18504                       # Per bank write bursts
system.mem_ctrls1.perBankWrBursts::7            18526                       # Per bank write bursts
system.mem_ctrls1.perBankWrBursts::8            17957                       # Per bank write bursts
system.mem_ctrls1.perBankWrBursts::9            18237                       # Per bank write bursts
system.mem_ctrls1.perBankWrBursts::10           18337                       # Per bank write bursts
system.mem_ctrls1.perBankWrBursts::11           18401                       # Per bank write bursts
system.mem_ctrls1.perBankWrBursts::12           18152                       # Per bank write bursts
system.mem_ctrls1.perBankWrBursts::13           18030                       # Per bank write bursts
system.mem_ctrls1.perBankWrBursts::14           18311                       # Per bank write bursts
system.mem_ctrls1.perBankWrBursts::15           18331                       # Per bank write bursts
system.mem_ctrls1.numRdRetry                     3993                       # Number of times read queue was full causing retry
system.mem_ctrls1.numWrRetry                     5530                       # Number of times write queue was full causing retry
system.mem_ctrls1.totGap                 122912839500                       # Total gap between requests
system.mem_ctrls1.readPktSize::0                    0                       # Read request sizes (log2)
system.mem_ctrls1.readPktSize::1                    0                       # Read request sizes (log2)
system.mem_ctrls1.readPktSize::2                    0                       # Read request sizes (log2)
system.mem_ctrls1.readPktSize::3                    0                       # Read request sizes (log2)
system.mem_ctrls1.readPktSize::4                    0                       # Read request sizes (log2)
system.mem_ctrls1.readPktSize::5                    0                       # Read request sizes (log2)
system.mem_ctrls1.readPktSize::6               631103                       # Read request sizes (log2)
system.mem_ctrls1.writePktSize::0                   0                       # Write request sizes (log2)
system.mem_ctrls1.writePktSize::1                   0                       # Write request sizes (log2)
system.mem_ctrls1.writePktSize::2                   0                       # Write request sizes (log2)
system.mem_ctrls1.writePktSize::3                   0                       # Write request sizes (log2)
system.mem_ctrls1.writePktSize::4                   0                       # Write request sizes (log2)
system.mem_ctrls1.writePktSize::5                   0                       # Write request sizes (log2)
system.mem_ctrls1.writePktSize::6              292822                       # Write request sizes (log2)
system.mem_ctrls1.rdQLenPdf::0                 202611                       # What read queue length does an incoming req see
system.mem_ctrls1.rdQLenPdf::1                  54025                       # What read queue length does an incoming req see
system.mem_ctrls1.rdQLenPdf::2                  46258                       # What read queue length does an incoming req see
system.mem_ctrls1.rdQLenPdf::3                  41009                       # What read queue length does an incoming req see
system.mem_ctrls1.rdQLenPdf::4                  36720                       # What read queue length does an incoming req see
system.mem_ctrls1.rdQLenPdf::5                  32649                       # What read queue length does an incoming req see
system.mem_ctrls1.rdQLenPdf::6                  28881                       # What read queue length does an incoming req see
system.mem_ctrls1.rdQLenPdf::7                  25396                       # What read queue length does an incoming req see
system.mem_ctrls1.rdQLenPdf::8                  21886                       # What read queue length does an incoming req see
system.mem_ctrls1.rdQLenPdf::9                  19146                       # What read queue length does an incoming req see
system.mem_ctrls1.rdQLenPdf::10                 16352                       # What read queue length does an incoming req see
system.mem_ctrls1.rdQLenPdf::11                 14161                       # What read queue length does an incoming req see
system.mem_ctrls1.rdQLenPdf::12                 12191                       # What read queue length does an incoming req see
system.mem_ctrls1.rdQLenPdf::13                 10568                       # What read queue length does an incoming req see
system.mem_ctrls1.rdQLenPdf::14                  9347                       # What read queue length does an incoming req see
system.mem_ctrls1.rdQLenPdf::15                  8038                       # What read queue length does an incoming req see
system.mem_ctrls1.rdQLenPdf::16                  6918                       # What read queue length does an incoming req see
system.mem_ctrls1.rdQLenPdf::17                  6051                       # What read queue length does an incoming req see
system.mem_ctrls1.rdQLenPdf::18                  5225                       # What read queue length does an incoming req see
system.mem_ctrls1.rdQLenPdf::19                  4610                       # What read queue length does an incoming req see
system.mem_ctrls1.rdQLenPdf::20                  3943                       # What read queue length does an incoming req see
system.mem_ctrls1.rdQLenPdf::21                  3363                       # What read queue length does an incoming req see
system.mem_ctrls1.rdQLenPdf::22                  2932                       # What read queue length does an incoming req see
system.mem_ctrls1.rdQLenPdf::23                  2566                       # What read queue length does an incoming req see
system.mem_ctrls1.rdQLenPdf::24                  2298                       # What read queue length does an incoming req see
system.mem_ctrls1.rdQLenPdf::25                  1996                       # What read queue length does an incoming req see
system.mem_ctrls1.rdQLenPdf::26                  1713                       # What read queue length does an incoming req see
system.mem_ctrls1.rdQLenPdf::27                  1491                       # What read queue length does an incoming req see
system.mem_ctrls1.rdQLenPdf::28                  1306                       # What read queue length does an incoming req see
system.mem_ctrls1.rdQLenPdf::29                  1136                       # What read queue length does an incoming req see
system.mem_ctrls1.rdQLenPdf::30                   993                       # What read queue length does an incoming req see
system.mem_ctrls1.rdQLenPdf::31                  4841                       # What read queue length does an incoming req see
system.mem_ctrls1.wrQLenPdf::0                  46302                       # What write queue length does an incoming req see
system.mem_ctrls1.wrQLenPdf::1                  52377                       # What write queue length does an incoming req see
system.mem_ctrls1.wrQLenPdf::2                  54694                       # What write queue length does an incoming req see
system.mem_ctrls1.wrQLenPdf::3                  55219                       # What write queue length does an incoming req see
system.mem_ctrls1.wrQLenPdf::4                  54461                       # What write queue length does an incoming req see
system.mem_ctrls1.wrQLenPdf::5                  11032                       # What write queue length does an incoming req see
system.mem_ctrls1.wrQLenPdf::6                   8347                       # What write queue length does an incoming req see
system.mem_ctrls1.wrQLenPdf::7                  10390                       # What write queue length does an incoming req see
system.mem_ctrls1.bytesPerActivate::samples       294499                       # Bytes accessed per row activation
system.mem_ctrls1.bytesPerActivate::mean   200.677082                       # Bytes accessed per row activation
system.mem_ctrls1.bytesPerActivate::gmean   154.207932                       # Bytes accessed per row activation
system.mem_ctrls1.bytesPerActivate::stdev   149.393701                       # Bytes accessed per row activation
system.mem_ctrls1.bytesPerActivate::0-127        96567     32.79%     32.79% # Bytes accessed per row activation
system.mem_ctrls1.bytesPerActivate::128-255        89824     30.50%     63.29% # Bytes accessed per row activation
system.mem_ctrls1.bytesPerActivate::256-383        72159     24.50%     87.79% # Bytes accessed per row activation
system.mem_ctrls1.bytesPerActivate::384-511        18060      6.13%     93.93% # Bytes accessed per row activation
system.mem_ctrls1.bytesPerActivate::512-639        12994      4.41%     98.34% # Bytes accessed per row activation
system.mem_ctrls1.bytesPerActivate::640-767         2616      0.89%     99.23% # Bytes accessed per row activation
system.mem_ctrls1.bytesPerActivate::768-895         1214      0.41%     99.64% # Bytes accessed per row activation
system.mem_ctrls1.bytesPerActivate::896-1023          697      0.24%     99.88% # Bytes accessed per row activation
system.mem_ctrls1.bytesPerActivate::1024-1151          368      0.12%    100.00% # Bytes accessed per row activation
system.mem_ctrls1.bytesPerActivate::total       294499                       # Bytes accessed per row activation
system.mem_ctrls1.rdPerTurnAround::samples        47382                       # Reads before turning the bus around for writes
system.mem_ctrls1.rdPerTurnAround::mean     13.309189                       # Reads before turning the bus around for writes
system.mem_ctrls1.rdPerTurnAround::stdev    27.049896                       # Reads before turning the bus around for writes
system.mem_ctrls1.rdPerTurnAround::0-127        47056     99.31%     99.31% # Reads before turning the bus around for writes
system.mem_ctrls1.rdPerTurnAround::128-255          279      0.59%     99.90% # Reads before turning the bus around for writes
system.mem_ctrls1.rdPerTurnAround::256-383           30      0.06%     99.96% # Reads before turning the bus around for writes
system.mem_ctrls1.rdPerTurnAround::384-511            9      0.02%     99.98% # Reads before turning the bus around for writes
system.mem_ctrls1.rdPerTurnAround::512-639            4      0.01%     99.99% # Reads before turning the bus around for writes
system.mem_ctrls1.rdPerTurnAround::768-895            1      0.00%     99.99% # Reads before turning the bus around for writes
system.mem_ctrls1.rdPerTurnAround::1024-1151            1      0.00%    100.00% # Reads before turning the bus around for writes
system.mem_ctrls1.rdPerTurnAround::1152-1279            1      0.00%    100.00% # Reads before turning the bus around for writes
system.mem_ctrls1.rdPerTurnAround::2816-2943            1      0.00%    100.00% # Reads before turning the bus around for writes
system.mem_ctrls1.rdPerTurnAround::total        47382                       # Reads before turning the bus around for writes
system.mem_ctrls1.wrPerTurnAround::samples        47382                       # Writes before turning the bus around for reads
system.mem_ctrls1.wrPerTurnAround::mean      6.179963                       # Writes before turning the bus around for reads
system.mem_ctrls1.wrPerTurnAround::gmean     5.840530                       # Writes before turning the bus around for reads
system.mem_ctrls1.wrPerTurnAround::stdev     2.561139                       # Writes before turning the bus around for reads
system.mem_ctrls1.wrPerTurnAround::4-7          39650     83.68%     83.68% # Writes before turning the bus around for reads
system.mem_ctrls1.wrPerTurnAround::8-11          4694      9.91%     93.59% # Writes before turning the bus around for reads
system.mem_ctrls1.wrPerTurnAround::12-15         1708      3.60%     97.19% # Writes before turning the bus around for reads
system.mem_ctrls1.wrPerTurnAround::16-19         1330      2.81%    100.00% # Writes before turning the bus around for reads
system.mem_ctrls1.wrPerTurnAround::total        47382                       # Writes before turning the bus around for reads
system.mem_ctrls1.totQLat                 43000532341                       # Total ticks spent queuing
system.mem_ctrls1.totMemAccLat            54824657341                       # Total ticks spent from burst creation until serviced by the DRAM
system.mem_ctrls1.totBusLat                3153100000                       # Total ticks spent in databus transfers
system.mem_ctrls1.avgQLat                    68187.71                       # Average queueing delay per DRAM burst
system.mem_ctrls1.avgBusLat                   5000.00                       # Average bus latency per DRAM burst
system.mem_ctrls1.avgMemAccLat               86937.71                       # Average memory access latency per DRAM burst
system.mem_ctrls1.avgRdBW                      328.36                       # Average DRAM read bandwidth in MiByte/s
system.mem_ctrls1.avgWrBW                      152.47                       # Average achieved write bandwidth in MiByte/s
system.mem_ctrls1.avgRdBWSys                   328.61                       # Average system read bandwidth in MiByte/s
system.mem_ctrls1.avgWrBWSys                   152.47                       # Average system write bandwidth in MiByte/s
system.mem_ctrls1.peakBW                     12800.00                       # Theoretical peak bandwidth in MiByte/s
system.mem_ctrls1.busUtil                        3.76                       # Data bus utilization in percentage
system.mem_ctrls1.busUtilRead                    2.57                       # Data bus utilization in percentage for reads
system.mem_ctrls1.busUtilWrite                   1.19                       # Data bus utilization in percentage for writes
system.mem_ctrls1.avgRdQLen                      1.47                       # Average read queue length when enqueuing
system.mem_ctrls1.avgWrQLen                      3.01                       # Average write queue length when enqueuing
system.mem_ctrls1.readRowHits                  463999                       # Number of row buffer hits during reads
system.mem_ctrls1.writeRowHits                 164933                       # Number of row buffer hits during writes
system.mem_ctrls1.readRowHitRate                73.58                       # Row buffer hit rate for reads
system.mem_ctrls1.writeRowHitRate               56.33                       # Row buffer hit rate for writes
system.mem_ctrls1.avgGap                    133033.35                       # Average gap between requests
system.mem_ctrls1.pageHitRate                   68.11                       # Row buffer hit rate, read and write combined
system.mem_ctrls1.memoryStateTime::IDLE   20782392250                       # Time in different power states
system.mem_ctrls1.memoryStateTime::REF     4104100000                       # Time in different power states
system.mem_ctrls1.memoryStateTime::PRE_PDN            0                       # Time in different power states
system.mem_ctrls1.memoryStateTime::ACT    98019737750                       # Time in different power states
system.mem_ctrls1.memoryStateTime::ACT_PDN            0                       # Time in different power states
system.mem_ctrls1.actEnergy::0             1123166520                       # Energy for activate commands per rank (pJ)
system.mem_ctrls1.actEnergy::1             1103102280                       # Energy for activate commands per rank (pJ)
system.mem_ctrls1.preEnergy::0              612838875                       # Energy for precharge commands per rank (pJ)
system.mem_ctrls1.preEnergy::1              601891125                       # Energy for precharge commands per rank (pJ)
system.mem_ctrls1.readEnergy::0            2467077600                       # Energy for read commands per rank (pJ)
system.mem_ctrls1.readEnergy::1            2451446400                       # Energy for read commands per rank (pJ)
system.mem_ctrls1.writeEnergy::0            952890480                       # Energy for write commands per rank (pJ)
system.mem_ctrls1.writeEnergy::1            944447040                       # Energy for write commands per rank (pJ)
system.mem_ctrls1.refreshEnergy::0         8027619600                       # Energy for refresh commands per rank (pJ)
system.mem_ctrls1.refreshEnergy::1         8027619600                       # Energy for refresh commands per rank (pJ)
system.mem_ctrls1.actBackEnergy::0        50264103375                       # Energy for active background per rank (pJ)
system.mem_ctrls1.actBackEnergy::1        50032070055                       # Energy for active background per rank (pJ)
system.mem_ctrls1.preBackEnergy::0        29652411000                       # Energy for precharge background per rank (pJ)
system.mem_ctrls1.preBackEnergy::1        29855949000                       # Energy for precharge background per rank (pJ)
system.mem_ctrls1.totalEnergy::0          93100107450                       # Total energy per rank (pJ)
system.mem_ctrls1.totalEnergy::1          93016525500                       # Total energy per rank (pJ)
system.mem_ctrls1.averagePower::0          757.489005                       # Core power per rank (mW)
system.mem_ctrls1.averagePower::1          756.808958                       # Core power per rank (mW)
system.mem_ctrls2.bytes_read::ruby.dir_cntrl2     40171072                       # Number of bytes read from this memory
system.mem_ctrls2.bytes_read::total          40171072                       # Number of bytes read from this memory
system.mem_ctrls2.bytes_written::ruby.dir_cntrl2     18727552                       # Number of bytes written to this memory
system.mem_ctrls2.bytes_written::total       18727552                       # Number of bytes written to this memory
system.mem_ctrls2.num_reads::ruby.dir_cntrl2       627673                       # Number of read requests responded to by this memory
system.mem_ctrls2.num_reads::total             627673                       # Number of read requests responded to by this memory
system.mem_ctrls2.num_writes::ruby.dir_cntrl2       292618                       # Number of write requests responded to by this memory
system.mem_ctrls2.num_writes::total            292618                       # Number of write requests responded to by this memory
system.mem_ctrls2.bw_read::ruby.dir_cntrl2    326823678                       # Total read bandwidth from this memory (bytes/s)
system.mem_ctrls2.bw_read::total            326823678                       # Total read bandwidth from this memory (bytes/s)
system.mem_ctrls2.bw_write::ruby.dir_cntrl2    152363557                       # Write bandwidth from this memory (bytes/s)
system.mem_ctrls2.bw_write::total           152363557                       # Write bandwidth from this memory (bytes/s)
system.mem_ctrls2.bw_total::ruby.dir_cntrl2    479187235                       # Total bandwidth to/from this memory (bytes/s)
system.mem_ctrls2.bw_total::total           479187235                       # Total bandwidth to/from this memory (bytes/s)
system.mem_ctrls2.readReqs                     627673                       # Number of read requests accepted
system.mem_ctrls2.writeReqs                    292618                       # Number of write requests accepted
system.mem_ctrls2.readBursts                   627673                       # Number of DRAM read bursts, including those serviced by the write queue
system.mem_ctrls2.writeBursts                  292618                       # Number of DRAM write bursts, including those merged in the write queue
system.mem_ctrls2.bytesReadDRAM              40141888                       # Total number of bytes read from DRAM
system.mem_ctrls2.bytesReadWrQ                  29184                       # Total number of bytes read from write queue
system.mem_ctrls2.bytesWritten               18727424                       # Total number of bytes written to DRAM
system.mem_ctrls2.bytesReadSys               40171072                       # Total read bytes from the system interface side
system.mem_ctrls2.bytesWrittenSys            18727552                       # Total written bytes from the system interface side
system.mem_ctrls2.servicedByWrQ                   456                       # Number of DRAM read bursts serviced by the write queue
system.mem_ctrls2.mergedWrBursts                    0                       # Number of DRAM write bursts merged with an existing one
system.mem_ctrls2.neitherReadNorWriteReqs            0                       # Number of requests that are neither read nor write
system.mem_ctrls2.perBankRdBursts::0            38986                       # Per bank write bursts
system.mem_ctrls2.perBankRdBursts::1            39035                       # Per bank write bursts
system.mem_ctrls2.perBankRdBursts::2            39454                       # Per bank write bursts
system.mem_ctrls2.perBankRdBursts::3            39648                       # Per bank write bursts
system.mem_ctrls2.perBankRdBursts::4            38881                       # Per bank write bursts
system.mem_ctrls2.perBankRdBursts::5            38910                       # Per bank write bursts
system.mem_ctrls2.perBankRdBursts::6            40111                       # Per bank write bursts
system.mem_ctrls2.perBankRdBursts::7            39667                       # Per bank write bursts
system.mem_ctrls2.perBankRdBursts::8            38535                       # Per bank write bursts
system.mem_ctrls2.perBankRdBursts::9            38789                       # Per bank write bursts
system.mem_ctrls2.perBankRdBursts::10           39318                       # Per bank write bursts
system.mem_ctrls2.perBankRdBursts::11           39713                       # Per bank write bursts
system.mem_ctrls2.perBankRdBursts::12           38669                       # Per bank write bursts
system.mem_ctrls2.perBankRdBursts::13           38631                       # Per bank write bursts
system.mem_ctrls2.perBankRdBursts::14           39443                       # Per bank write bursts
system.mem_ctrls2.perBankRdBursts::15           39427                       # Per bank write bursts
system.mem_ctrls2.perBankWrBursts::0            18183                       # Per bank write bursts
system.mem_ctrls2.perBankWrBursts::1            18231                       # Per bank write bursts
system.mem_ctrls2.perBankWrBursts::2            18574                       # Per bank write bursts
system.mem_ctrls2.perBankWrBursts::3            18501                       # Per bank write bursts
system.mem_ctrls2.perBankWrBursts::4            18278                       # Per bank write bursts
system.mem_ctrls2.perBankWrBursts::5            18281                       # Per bank write bursts
system.mem_ctrls2.perBankWrBursts::6            18470                       # Per bank write bursts
system.mem_ctrls2.perBankWrBursts::7            18398                       # Per bank write bursts
system.mem_ctrls2.perBankWrBursts::8            17997                       # Per bank write bursts
system.mem_ctrls2.perBankWrBursts::9            18228                       # Per bank write bursts
system.mem_ctrls2.perBankWrBursts::10           18373                       # Per bank write bursts
system.mem_ctrls2.perBankWrBursts::11           18358                       # Per bank write bursts
system.mem_ctrls2.perBankWrBursts::12           18076                       # Per bank write bursts
system.mem_ctrls2.perBankWrBursts::13           18124                       # Per bank write bursts
system.mem_ctrls2.perBankWrBursts::14           18348                       # Per bank write bursts
system.mem_ctrls2.perBankWrBursts::15           18196                       # Per bank write bursts
system.mem_ctrls2.numRdRetry                     3643                       # Number of times read queue was full causing retry
system.mem_ctrls2.numWrRetry                     5661                       # Number of times write queue was full causing retry
system.mem_ctrls2.totGap                 122913548500                       # Total gap between requests
system.mem_ctrls2.readPktSize::0                    0                       # Read request sizes (log2)
system.mem_ctrls2.readPktSize::1                    0                       # Read request sizes (log2)
system.mem_ctrls2.readPktSize::2                    0                       # Read request sizes (log2)
system.mem_ctrls2.readPktSize::3                    0                       # Read request sizes (log2)
system.mem_ctrls2.readPktSize::4                    0                       # Read request sizes (log2)
system.mem_ctrls2.readPktSize::5                    0                       # Read request sizes (log2)
system.mem_ctrls2.readPktSize::6               627673                       # Read request sizes (log2)
system.mem_ctrls2.writePktSize::0                   0                       # Write request sizes (log2)
system.mem_ctrls2.writePktSize::1                   0                       # Write request sizes (log2)
system.mem_ctrls2.writePktSize::2                   0                       # Write request sizes (log2)
system.mem_ctrls2.writePktSize::3                   0                       # Write request sizes (log2)
system.mem_ctrls2.writePktSize::4                   0                       # Write request sizes (log2)
system.mem_ctrls2.writePktSize::5                   0                       # Write request sizes (log2)
system.mem_ctrls2.writePktSize::6              292618                       # Write request sizes (log2)
system.mem_ctrls2.rdQLenPdf::0                 203955                       # What read queue length does an incoming req see
system.mem_ctrls2.rdQLenPdf::1                  54362                       # What read queue length does an incoming req see
system.mem_ctrls2.rdQLenPdf::2                  46512                       # What read queue length does an incoming req see
system.mem_ctrls2.rdQLenPdf::3                  40989                       # What read queue length does an incoming req see
system.mem_ctrls2.rdQLenPdf::4                  36252                       # What read queue length does an incoming req see
system.mem_ctrls2.rdQLenPdf::5                  32331                       # What read queue length does an incoming req see
system.mem_ctrls2.rdQLenPdf::6                  28381                       # What read queue length does an incoming req see
system.mem_ctrls2.rdQLenPdf::7                  24915                       # What read queue length does an incoming req see
system.mem_ctrls2.rdQLenPdf::8                  21749                       # What read queue length does an incoming req see
system.mem_ctrls2.rdQLenPdf::9                  18863                       # What read queue length does an incoming req see
system.mem_ctrls2.rdQLenPdf::10                 16123                       # What read queue length does an incoming req see
system.mem_ctrls2.rdQLenPdf::11                 13910                       # What read queue length does an incoming req see
system.mem_ctrls2.rdQLenPdf::12                 11981                       # What read queue length does an incoming req see
system.mem_ctrls2.rdQLenPdf::13                 10364                       # What read queue length does an incoming req see
system.mem_ctrls2.rdQLenPdf::14                  8951                       # What read queue length does an incoming req see
system.mem_ctrls2.rdQLenPdf::15                  7986                       # What read queue length does an incoming req see
system.mem_ctrls2.rdQLenPdf::16                  6932                       # What read queue length does an incoming req see
system.mem_ctrls2.rdQLenPdf::17                  5928                       # What read queue length does an incoming req see
system.mem_ctrls2.rdQLenPdf::18                  5109                       # What read queue length does an incoming req see
system.mem_ctrls2.rdQLenPdf::19                  4429                       # What read queue length does an incoming req see
system.mem_ctrls2.rdQLenPdf::20                  3825                       # What read queue length does an incoming req see
system.mem_ctrls2.rdQLenPdf::21                  3387                       # What read queue length does an incoming req see
system.mem_ctrls2.rdQLenPdf::22                  2957                       # What read queue length does an incoming req see
system.mem_ctrls2.rdQLenPdf::23                  2498                       # What read queue length does an incoming req see
system.mem_ctrls2.rdQLenPdf::24                  2196                       # What read queue length does an incoming req see
system.mem_ctrls2.rdQLenPdf::25                  1884                       # What read queue length does an incoming req see
system.mem_ctrls2.rdQLenPdf::26                  1590                       # What read queue length does an incoming req see
system.mem_ctrls2.rdQLenPdf::27                  1391                       # What read queue length does an incoming req see
system.mem_ctrls2.rdQLenPdf::28                  1185                       # What read queue length does an incoming req see
system.mem_ctrls2.rdQLenPdf::29                   997                       # What read queue length does an incoming req see
system.mem_ctrls2.rdQLenPdf::30                   858                       # What read queue length does an incoming req see
system.mem_ctrls2.rdQLenPdf::31                  4427                       # What read queue length does an incoming req see
system.mem_ctrls2.wrQLenPdf::0                  46330                       # What write queue length does an incoming req see
system.mem_ctrls2.wrQLenPdf::1                  52318                       # What write queue length does an incoming req see
system.mem_ctrls2.wrQLenPdf::2                  54738                       # What write queue length does an incoming req see
system.mem_ctrls2.wrQLenPdf::3                  54967                       # What write queue length does an incoming req see
system.mem_ctrls2.wrQLenPdf::4                  54050                       # What write queue length does an incoming req see
system.mem_ctrls2.wrQLenPdf::5                  11156                       # What write queue length does an incoming req see
system.mem_ctrls2.wrQLenPdf::6                   8444                       # What write queue length does an incoming req see
system.mem_ctrls2.wrQLenPdf::7                  10615                       # What write queue length does an incoming req see
system.mem_ctrls2.bytesPerActivate::samples       292025                       # Bytes accessed per row activation
system.mem_ctrls2.bytesPerActivate::mean   201.586686                       # Bytes accessed per row activation
system.mem_ctrls2.bytesPerActivate::gmean   155.072830                       # Bytes accessed per row activation
system.mem_ctrls2.bytesPerActivate::stdev   149.472758                       # Bytes accessed per row activation
system.mem_ctrls2.bytesPerActivate::0-127        94785     32.46%     32.46% # Bytes accessed per row activation
system.mem_ctrls2.bytesPerActivate::128-255        88818     30.41%     62.87% # Bytes accessed per row activation
system.mem_ctrls2.bytesPerActivate::256-383        72762     24.92%     87.79% # Bytes accessed per row activation
system.mem_ctrls2.bytesPerActivate::384-511        17832      6.11%     93.90% # Bytes accessed per row activation
system.mem_ctrls2.bytesPerActivate::512-639        12986      4.45%     98.34% # Bytes accessed per row activation
system.mem_ctrls2.bytesPerActivate::640-767         2531      0.87%     99.21% # Bytes accessed per row activation
system.mem_ctrls2.bytesPerActivate::768-895         1216      0.42%     99.63% # Bytes accessed per row activation
system.mem_ctrls2.bytesPerActivate::896-1023          721      0.25%     99.87% # Bytes accessed per row activation
system.mem_ctrls2.bytesPerActivate::1024-1151          374      0.13%    100.00% # Bytes accessed per row activation
system.mem_ctrls2.bytesPerActivate::total       292025                       # Bytes accessed per row activation
system.mem_ctrls2.rdPerTurnAround::samples        47395                       # Reads before turning the bus around for writes
system.mem_ctrls2.rdPerTurnAround::mean     13.233759                       # Reads before turning the bus around for writes
system.mem_ctrls2.rdPerTurnAround::stdev    26.898972                       # Reads before turning the bus around for writes
system.mem_ctrls2.rdPerTurnAround::0-127        47098     99.37%     99.37% # Reads before turning the bus around for writes
system.mem_ctrls2.rdPerTurnAround::128-255          243      0.51%     99.89% # Reads before turning the bus around for writes
system.mem_ctrls2.rdPerTurnAround::256-383           34      0.07%     99.96% # Reads before turning the bus around for writes
system.mem_ctrls2.rdPerTurnAround::384-511            9      0.02%     99.98% # Reads before turning the bus around for writes
system.mem_ctrls2.rdPerTurnAround::512-639            6      0.01%     99.99% # Reads before turning the bus around for writes
system.mem_ctrls2.rdPerTurnAround::640-767            1      0.00%     99.99% # Reads before turning the bus around for writes
system.mem_ctrls2.rdPerTurnAround::768-895            2      0.00%    100.00% # Reads before turning the bus around for writes
system.mem_ctrls2.rdPerTurnAround::1152-1279            1      0.00%    100.00% # Reads before turning the bus around for writes
system.mem_ctrls2.rdPerTurnAround::2816-2943            1      0.00%    100.00% # Reads before turning the bus around for writes
system.mem_ctrls2.rdPerTurnAround::total        47395                       # Reads before turning the bus around for writes
system.mem_ctrls2.wrPerTurnAround::samples        47395                       # Writes before turning the bus around for reads
system.mem_ctrls2.wrPerTurnAround::mean      6.173985                       # Writes before turning the bus around for reads
system.mem_ctrls2.wrPerTurnAround::gmean     5.837857                       # Writes before turning the bus around for reads
system.mem_ctrls2.wrPerTurnAround::stdev     2.547623                       # Writes before turning the bus around for reads
system.mem_ctrls2.wrPerTurnAround::4-7          39635     83.63%     83.63% # Writes before turning the bus around for reads
system.mem_ctrls2.wrPerTurnAround::8-11          4780     10.09%     93.71% # Writes before turning the bus around for reads
system.mem_ctrls2.wrPerTurnAround::12-15         1634      3.45%     97.16% # Writes before turning the bus around for reads
system.mem_ctrls2.wrPerTurnAround::16-19         1346      2.84%    100.00% # Writes before turning the bus around for reads
system.mem_ctrls2.wrPerTurnAround::total        47395                       # Writes before turning the bus around for reads
system.mem_ctrls2.totQLat                 42424905533                       # Total ticks spent queuing
system.mem_ctrls2.totMemAccLat            54185224283                       # Total ticks spent from burst creation until serviced by the DRAM
system.mem_ctrls2.totBusLat                3136085000                       # Total ticks spent in databus transfers
system.mem_ctrls2.avgQLat                    67639.92                       # Average queueing delay per DRAM burst
system.mem_ctrls2.avgBusLat                   5000.00                       # Average bus latency per DRAM burst
system.mem_ctrls2.avgMemAccLat               86389.92                       # Average memory access latency per DRAM burst
system.mem_ctrls2.avgRdBW                      326.59                       # Average DRAM read bandwidth in MiByte/s
system.mem_ctrls2.avgWrBW                      152.36                       # Average achieved write bandwidth in MiByte/s
system.mem_ctrls2.avgRdBWSys                   326.82                       # Average system read bandwidth in MiByte/s
system.mem_ctrls2.avgWrBWSys                   152.36                       # Average system write bandwidth in MiByte/s
system.mem_ctrls2.peakBW                     12800.00                       # Theoretical peak bandwidth in MiByte/s
system.mem_ctrls2.busUtil                        3.74                       # Data bus utilization in percentage
system.mem_ctrls2.busUtilRead                    2.55                       # Data bus utilization in percentage for reads
system.mem_ctrls2.busUtilWrite                   1.19                       # Data bus utilization in percentage for writes
system.mem_ctrls2.avgRdQLen                      1.46                       # Average read queue length when enqueuing
system.mem_ctrls2.avgWrQLen                      3.01                       # Average write queue length when enqueuing
system.mem_ctrls2.readRowHits                  461643                       # Number of row buffer hits during reads
system.mem_ctrls2.writeRowHits                 166155                       # Number of row buffer hits during writes
system.mem_ctrls2.readRowHitRate                73.60                       # Row buffer hit rate for reads
system.mem_ctrls2.writeRowHitRate               56.78                       # Row buffer hit rate for writes
system.mem_ctrls2.avgGap                    133559.44                       # Average gap between requests
system.mem_ctrls2.pageHitRate                   68.25                       # Row buffer hit rate, read and write combined
system.mem_ctrls2.memoryStateTime::IDLE   20881128750                       # Time in different power states
system.mem_ctrls2.memoryStateTime::REF     4104100000                       # Time in different power states
system.mem_ctrls2.memoryStateTime::PRE_PDN            0                       # Time in different power states
system.mem_ctrls2.memoryStateTime::ACT    97921001250                       # Time in different power states
system.mem_ctrls2.memoryStateTime::ACT_PDN            0                       # Time in different power states
system.mem_ctrls2.actEnergy::0             1111501440                       # Energy for activate commands per rank (pJ)
system.mem_ctrls2.actEnergy::1             1096041240                       # Energy for activate commands per rank (pJ)
system.mem_ctrls2.preEnergy::0              606474000                       # Energy for precharge commands per rank (pJ)
system.mem_ctrls2.preEnergy::1              598038375                       # Energy for precharge commands per rank (pJ)
system.mem_ctrls2.readEnergy::0            2454511800                       # Energy for read commands per rank (pJ)
system.mem_ctrls2.readEnergy::1            2437570200                       # Energy for read commands per rank (pJ)
system.mem_ctrls2.writeEnergy::0            951937920                       # Energy for write commands per rank (pJ)
system.mem_ctrls2.writeEnergy::1            944084160                       # Energy for write commands per rank (pJ)
system.mem_ctrls2.refreshEnergy::0         8027619600                       # Energy for refresh commands per rank (pJ)
system.mem_ctrls2.refreshEnergy::1         8027619600                       # Energy for refresh commands per rank (pJ)
system.mem_ctrls2.actBackEnergy::0        50526461835                       # Energy for active background per rank (pJ)
system.mem_ctrls2.actBackEnergy::1        50013118125                       # Energy for active background per rank (pJ)
system.mem_ctrls2.preBackEnergy::0        29422272000                       # Energy for precharge background per rank (pJ)
system.mem_ctrls2.preBackEnergy::1        29872573500                       # Energy for precharge background per rank (pJ)
system.mem_ctrls2.totalEnergy::0          93100778595                       # Total energy per rank (pJ)
system.mem_ctrls2.totalEnergy::1          92989045200                       # Total energy per rank (pJ)
system.mem_ctrls2.averagePower::0          757.494466                       # Core power per rank (mW)
system.mem_ctrls2.averagePower::1          756.585371                       # Core power per rank (mW)
system.mem_ctrls3.bytes_read::ruby.dir_cntrl3     40360128                       # Number of bytes read from this memory
system.mem_ctrls3.bytes_read::total          40360128                       # Number of bytes read from this memory
system.mem_ctrls3.bytes_written::ruby.dir_cntrl3     18806592                       # Number of bytes written to this memory
system.mem_ctrls3.bytes_written::total       18806592                       # Number of bytes written to this memory
system.mem_ctrls3.num_reads::ruby.dir_cntrl3       630627                       # Number of read requests responded to by this memory
system.mem_ctrls3.num_reads::total             630627                       # Number of read requests responded to by this memory
system.mem_ctrls3.num_writes::ruby.dir_cntrl3       293853                       # Number of write requests responded to by this memory
system.mem_ctrls3.num_writes::total            293853                       # Number of write requests responded to by this memory
system.mem_ctrls3.bw_read::ruby.dir_cntrl3    328361799                       # Total read bandwidth from this memory (bytes/s)
system.mem_ctrls3.bw_read::total            328361799                       # Total read bandwidth from this memory (bytes/s)
system.mem_ctrls3.bw_write::ruby.dir_cntrl3    153006610                       # Write bandwidth from this memory (bytes/s)
system.mem_ctrls3.bw_write::total           153006610                       # Write bandwidth from this memory (bytes/s)
system.mem_ctrls3.bw_total::ruby.dir_cntrl3    481368409                       # Total bandwidth to/from this memory (bytes/s)
system.mem_ctrls3.bw_total::total           481368409                       # Total bandwidth to/from this memory (bytes/s)
system.mem_ctrls3.readReqs                     630628                       # Number of read requests accepted
system.mem_ctrls3.writeReqs                    293853                       # Number of write requests accepted
system.mem_ctrls3.readBursts                   630628                       # Number of DRAM read bursts, including those serviced by the write queue
system.mem_ctrls3.writeBursts                  293853                       # Number of DRAM write bursts, including those merged in the write queue
system.mem_ctrls3.bytesReadDRAM              40330880                       # Total number of bytes read from DRAM
system.mem_ctrls3.bytesReadWrQ                  29312                       # Total number of bytes read from write queue
system.mem_ctrls3.bytesWritten               18806336                       # Total number of bytes written to DRAM
system.mem_ctrls3.bytesReadSys               40360192                       # Total read bytes from the system interface side
system.mem_ctrls3.bytesWrittenSys            18806592                       # Total written bytes from the system interface side
system.mem_ctrls3.servicedByWrQ                   458                       # Number of DRAM read bursts serviced by the write queue
system.mem_ctrls3.mergedWrBursts                    0                       # Number of DRAM write bursts merged with an existing one
system.mem_ctrls3.neitherReadNorWriteReqs            0                       # Number of requests that are neither read nor write
system.mem_ctrls3.perBankRdBursts::0            39091                       # Per bank write bursts
system.mem_ctrls3.perBankRdBursts::1            39284                       # Per bank write bursts
system.mem_ctrls3.perBankRdBursts::2            39489                       # Per bank write bursts
system.mem_ctrls3.perBankRdBursts::3            39989                       # Per bank write bursts
system.mem_ctrls3.perBankRdBursts::4            38908                       # Per bank write bursts
system.mem_ctrls3.perBankRdBursts::5            38962                       # Per bank write bursts
system.mem_ctrls3.perBankRdBursts::6            40403                       # Per bank write bursts
system.mem_ctrls3.perBankRdBursts::7            39855                       # Per bank write bursts
system.mem_ctrls3.perBankRdBursts::8            38747                       # Per bank write bursts
system.mem_ctrls3.perBankRdBursts::9            38939                       # Per bank write bursts
system.mem_ctrls3.perBankRdBursts::10           39559                       # Per bank write bursts
system.mem_ctrls3.perBankRdBursts::11           40018                       # Per bank write bursts
system.mem_ctrls3.perBankRdBursts::12           38733                       # Per bank write bursts
system.mem_ctrls3.perBankRdBursts::13           38703                       # Per bank write bursts
system.mem_ctrls3.perBankRdBursts::14           39893                       # Per bank write bursts
system.mem_ctrls3.perBankRdBursts::15           39597                       # Per bank write bursts
system.mem_ctrls3.perBankWrBursts::0            18182                       # Per bank write bursts
system.mem_ctrls3.perBankWrBursts::1            18344                       # Per bank write bursts
system.mem_ctrls3.perBankWrBursts::2            18583                       # Per bank write bursts
system.mem_ctrls3.perBankWrBursts::3            18601                       # Per bank write bursts
system.mem_ctrls3.perBankWrBursts::4            18341                       # Per bank write bursts
system.mem_ctrls3.perBankWrBursts::5            18348                       # Per bank write bursts
system.mem_ctrls3.perBankWrBursts::6            18575                       # Per bank write bursts
system.mem_ctrls3.perBankWrBursts::7            18536                       # Per bank write bursts
system.mem_ctrls3.perBankWrBursts::8            17997                       # Per bank write bursts
system.mem_ctrls3.perBankWrBursts::9            18359                       # Per bank write bursts
system.mem_ctrls3.perBankWrBursts::10           18407                       # Per bank write bursts
system.mem_ctrls3.perBankWrBursts::11           18483                       # Per bank write bursts
system.mem_ctrls3.perBankWrBursts::12           18134                       # Per bank write bursts
system.mem_ctrls3.perBankWrBursts::13           18183                       # Per bank write bursts
system.mem_ctrls3.perBankWrBursts::14           18477                       # Per bank write bursts
system.mem_ctrls3.perBankWrBursts::15           18299                       # Per bank write bursts
system.mem_ctrls3.numRdRetry                     4434                       # Number of times read queue was full causing retry
system.mem_ctrls3.numWrRetry                     5572                       # Number of times write queue was full causing retry
system.mem_ctrls3.totGap                 122912844500                       # Total gap between requests
system.mem_ctrls3.readPktSize::0                    0                       # Read request sizes (log2)
system.mem_ctrls3.readPktSize::1                    0                       # Read request sizes (log2)
system.mem_ctrls3.readPktSize::2                    0                       # Read request sizes (log2)
system.mem_ctrls3.readPktSize::3                    0                       # Read request sizes (log2)
system.mem_ctrls3.readPktSize::4                    0                       # Read request sizes (log2)
system.mem_ctrls3.readPktSize::5                    0                       # Read request sizes (log2)
system.mem_ctrls3.readPktSize::6               630628                       # Read request sizes (log2)
system.mem_ctrls3.writePktSize::0                   0                       # Write request sizes (log2)
system.mem_ctrls3.writePktSize::1                   0                       # Write request sizes (log2)
system.mem_ctrls3.writePktSize::2                   0                       # Write request sizes (log2)
system.mem_ctrls3.writePktSize::3                   0                       # Write request sizes (log2)
system.mem_ctrls3.writePktSize::4                   0                       # Write request sizes (log2)
system.mem_ctrls3.writePktSize::5                   0                       # Write request sizes (log2)
system.mem_ctrls3.writePktSize::6              293853                       # Write request sizes (log2)
system.mem_ctrls3.rdQLenPdf::0                 202971                       # What read queue length does an incoming req see
system.mem_ctrls3.rdQLenPdf::1                  54508                       # What read queue length does an incoming req see
system.mem_ctrls3.rdQLenPdf::2                  46880                       # What read queue length does an incoming req see
system.mem_ctrls3.rdQLenPdf::3                  41415                       # What read queue length does an incoming req see
system.mem_ctrls3.rdQLenPdf::4                  36615                       # What read queue length does an incoming req see
system.mem_ctrls3.rdQLenPdf::5                  32631                       # What read queue length does an incoming req see
system.mem_ctrls3.rdQLenPdf::6                  28894                       # What read queue length does an incoming req see
system.mem_ctrls3.rdQLenPdf::7                  24998                       # What read queue length does an incoming req see
system.mem_ctrls3.rdQLenPdf::8                  21468                       # What read queue length does an incoming req see
[...]
system.ruby.L2Cache_Controller.MT_MB.L1_PUTX::total         2399                      
system.ruby.L2Cache_Controller.MT_MB.L1_PUTX_old |           1      9.09%      9.09% |           0      0.00%      9.09% |           0      0.00%      9.09% |           0      0.00%      9.09% |           0      0.00%      9.09% |           0      0.00%      9.09% |           0      0.00%      9.09% |           0      0.00%      9.09% |           0      0.00%      9.09% |           0      0.00%      9.09% |           0      0.00%      9.09% |           0      0.00%      9.09% |           1      9.09%     18.18% |           1      9.09%     27.27% |           1      9.09%     36.36% |           0      0.00%     36.36% |           2     18.18%     54.55% |           0      0.00%     54.55% |           1      9.09%     63.64% |           0      0.00%     63.64% |           0      0.00%     63.64% |           2     18.18%     81.82% |           0      0.00%     81.82% |           0      0.00%     81.82% |           1      9.09%     90.91% |           0      0.00%     90.91% |           0      0.00%     90.91% |           1      9.09%    100.00% |           0      0.00%    100.00% |           0      0.00%    100.00% |           0      0.00%    100.00% |           0      0.00%    100.00%
system.ruby.L2Cache_Controller.MT_MB.L1_PUTX_old::total           11                      
system.ruby.L2Cache_Controller.MT_MB.L2_Replacement_clean |           0      0.00%      0.00% |           0      0.00%      0.00% |           0      0.00%      0.00% |           0      0.00%      0.00% |           0      0.00%      0.00% |           0      0.00%      0.00% |           1     33.33%     33.33% |           1     33.33%     66.67% |           0      0.00%     66.67% |           0      0.00%     66.67% |           0      0.00%     66.67% |           0      0.00%     66.67% |           0      0.00%     66.67% |           0      0.00%     66.67% |           0      0.00%     66.67% |           0      0.00%     66.67% |           0      0.00%     66.67% |           0      0.00%     66.67% |           0      0.00%     66.67% |           0      0.00%     66.67% |           0      0.00%     66.67% |           0      0.00%     66.67% |           0      0.00%     66.67% |           1     33.33%    100.00% |           0      0.00%    100.00% |           0      0.00%    100.00% |           0      0.00%    100.00% |           0      0.00%    100.00% |           0      0.00%    100.00% |           0      0.00%    100.00% |           0      0.00%    100.00% |           0      0.00%    100.00%
system.ruby.L2Cache_Controller.MT_MB.L2_Replacement_clean::total            3                      
system.ruby.L2Cache_Controller.MT_MB.Exclusive_Unblock |      220490      5.19%      5.19% |      130468      3.07%      8.26% |      129065      3.04%     11.29% |      131028      3.08%     14.37% |      129001      3.03%     17.41% |      128243      3.02%     20.43% |      128278      3.02%     23.44% |      127557      3.00%     26.44% |      127925      3.01%     29.45% |      128834      3.03%     32.48% |      130659      3.07%     35.56% |      129691      3.05%     38.61% |      128332      3.02%     41.63% |      128801      3.03%     44.66% |      127333      3.00%     47.65% |      127443      3.00%     50.65% |      128287      3.02%     53.67% |      128428      3.02%     56.69% |      128806      3.03%     59.72% |      128937      3.03%     62.75% |      128973      3.03%     65.79% |      143592      3.38%     69.17% |      137188      3.23%     72.39% |      128234      3.02%     75.41% |      128718      3.03%     78.44% |      129160      3.04%     81.48% |      128753      3.03%     84.51% |      128281      3.02%     87.52% |      129590      3.05%     90.57% |      128762      3.03%     93.60% |      132446      3.12%     96.72% |      139582      3.28%    100.00%
system.ruby.L2Cache_Controller.MT_MB.Exclusive_Unblock::total      4250885                      
system.ruby.L2Cache_Controller.MT_IIB.L1_PUTX |           8      1.06%      1.06% |           8      1.06%      2.12% |          12      1.59%      3.72% |          13      1.73%      5.44% |          11      1.46%      6.91% |          24      3.19%     10.09% |          29      3.85%     13.94% |          28      3.72%     17.66% |          23      3.05%     20.72% |          24      3.19%     23.90% |          19      2.52%     26.43% |          18      2.39%     28.82% |          22      2.92%     31.74% |          25      3.32%     35.06% |          44      5.84%     40.90% |          28      3.72%     44.62% |          26      3.45%     48.07% |          22      2.92%     51.00% |          24      3.19%     54.18% |          32      4.25%     58.43% |          31      4.12%     62.55% |          32      4.25%     66.80% |          33      4.38%     71.18% |          29      3.85%     75.03% |           9      1.20%     76.23% |          22      2.92%     79.15% |          35      4.65%     83.80% |          32      4.25%     88.05% |          18      2.39%     90.44% |          21      2.79%     93.23% |          24      3.19%     96.41% |          27      3.59%    100.00%
system.ruby.L2Cache_Controller.MT_IIB.L1_PUTX::total          753                      
system.ruby.L2Cache_Controller.MT_IIB.WB_Data |           0      0.00%      0.00% |           0      0.00%      0.00% |           0      0.00%      0.00% |           0      0.00%      0.00% |           0      0.00%      0.00% |           0      0.00%      0.00% |           0      0.00%      0.00% |           0      0.00%      0.00% |           0      0.00%      0.00% |           0      0.00%      0.00% |           0      0.00%      0.00% |           0      0.00%      0.00% |           0      0.00%      0.00% |           0      0.00%      0.00% |           0      0.00%      0.00% |           0      0.00%      0.00% |           0      0.00%      0.00% |           0      0.00%      0.00% |           0      0.00%      0.00% |           0      0.00%      0.00% |           0      0.00%      0.00% |           2     40.00%     40.00% |           0      0.00%     40.00% |           0      0.00%     40.00% |           0      0.00%     40.00% |           0      0.00%     40.00% |           1     20.00%     60.00% |           0      0.00%     60.00% |           0      0.00%     60.00% |           0      0.00%     60.00% |           0      0.00%     60.00% |           2     40.00%    100.00%
system.ruby.L2Cache_Controller.MT_IIB.WB_Data::total            5                      
system.ruby.L2Cache_Controller.MT_IIB.WB_Data_clean |        1015      3.07%      3.07% |         913      2.76%      5.82% |         899      2.72%      8.54% |         899      2.72%     11.26% |         989      2.99%     14.24% |        1019      3.08%     17.32% |        1128      3.41%     20.73% |        1067      3.22%     23.95% |        1051      3.17%     27.13% |         914      2.76%     29.89% |         934      2.82%     32.71% |         906      2.74%     35.45% |         997      3.01%     38.46% |        1058      3.20%     41.65% |        1113      3.36%     45.02% |        1045      3.16%     48.17% |        1161      3.51%     51.68% |        1093      3.30%     54.98% |        1020      3.08%     58.06% |        1070      3.23%     61.29% |        1119      3.38%     64.67% |        1095      3.31%     67.98% |        1104      3.33%     71.32% |        1030      3.11%     74.43% |        1045      3.16%     77.59% |        1015      3.07%     80.65% |        1070      3.23%     83.88% |        1086      3.28%     87.16% |        1110      3.35%     90.52% |        1076      3.25%     93.77% |        1040      3.14%     96.91% |        1023      3.09%    100.00%
system.ruby.L2Cache_Controller.MT_IIB.WB_Data_clean::total        33104                      
system.ruby.L2Cache_Controller.MT_IIB.Unblock |          31      1.44%      1.44% |          41      1.90%      3.34% |         100      4.64%      7.97% |         107      4.96%     12.93% |         107      4.96%     17.90% |          83      3.85%     21.74% |          32      1.48%     23.23% |          27      1.25%     24.48% |          70      3.25%     27.72% |          55      2.55%     30.27% |          59      2.74%     33.01% |          73      3.38%     36.39% |          88      4.08%     40.47% |          53      2.46%     42.93% |          70      3.25%     46.18% |          71      3.29%     49.47% |          20      0.93%     50.39% |          15      0.70%     51.09% |          81      3.76%     54.84% |          59      2.74%     57.58% |          71      3.29%     60.87% |          79      3.66%     64.53% |          64      2.97%     67.50% |          73      3.38%     70.89% |          77      3.57%     74.46% |          78      3.62%     78.07% |          46      2.13%     80.20% |          73      3.38%     83.59% |          81      3.76%     87.34% |          87      4.03%     91.38% |         113      5.24%     96.62% |          73      3.38%    100.00%
system.ruby.L2Cache_Controller.MT_IIB.Unblock::total         2157                      
system.ruby.L2Cache_Controller.MT_IB.L1_PUTX |           0      0.00%      0.00% |           0      0.00%      0.00% |           0      0.00%      0.00% |           0      0.00%      0.00% |           0      0.00%      0.00% |           0      0.00%      0.00% |           0      0.00%      0.00% |           0      0.00%      0.00% |           0      0.00%      0.00% |           0      0.00%      0.00% |           0      0.00%      0.00% |           0      0.00%      0.00% |           0      0.00%      0.00% |           0      0.00%      0.00% |           0      0.00%      0.00% |           0      0.00%      0.00% |           0      0.00%      0.00% |           1    100.00%    100.00% |           0      0.00%    100.00% |           0      0.00%    100.00% |           0      0.00%    100.00% |           0      0.00%    100.00% |           0      0.00%    100.00% |           0      0.00%    100.00% |           0      0.00%    100.00% |           0      0.00%    100.00% |           0      0.00%    100.00% |           0      0.00%    100.00% |           0      0.00%    100.00% |           0      0.00%    100.00% |           0      0.00%    100.00% |           0      0.00%    100.00%
system.ruby.L2Cache_Controller.MT_IB.L1_PUTX::total            1                      
system.ruby.L2Cache_Controller.MT_IB.WB_Data_clean |          31      1.44%      1.44% |          41      1.90%      3.34% |         100      4.64%      7.97% |         107      4.96%     12.93% |         107      4.96%     17.90% |          83      3.85%     21.74% |          32      1.48%     23.23% |          27      1.25%     24.48% |          70      3.25%     27.72% |          55      2.55%     30.27% |          59      2.74%     33.01% |          73      3.38%     36.39% |          88      4.08%     40.47% |          53      2.46%     42.93% |          70      3.25%     46.18% |          71      3.29%     49.47% |          20      0.93%     50.39% |          15      0.70%     51.09% |          81      3.76%     54.84% |          59      2.74%     57.58% |          71      3.29%     60.87% |          79      3.66%     64.53% |          64      2.97%     67.50% |          73      3.38%     70.89% |          77      3.57%     74.46% |          78      3.62%     78.07% |          46      2.13%     80.20% |          73      3.38%     83.59% |          81      3.76%     87.34% |          87      4.03%     91.38% |         113      5.24%     96.62% |          73      3.38%    100.00%
system.ruby.L2Cache_Controller.MT_IB.WB_Data_clean::total         2157                      
system.ruby.L2Cache_Controller.MT_SB.L1_PUTX |           1      2.13%      2.13% |           2      4.26%      6.38% |           0      0.00%      6.38% |           0      0.00%      6.38% |           1      2.13%      8.51% |           0      0.00%      8.51% |           1      2.13%     10.64% |           0      0.00%     10.64% |           5     10.64%     21.28% |           5     10.64%     31.91% |           0      0.00%     31.91% |           0      0.00%     31.91% |           1      2.13%     34.04% |           2      4.26%     38.30% |           3      6.38%     44.68% |           1      2.13%     46.81% |           1      2.13%     48.94% |           2      4.26%     53.19% |           0      0.00%     53.19% |           1      2.13%     55.32% |           3      6.38%     61.70% |           1      2.13%     63.83% |           2      4.26%     68.09% |           1      2.13%     70.21% |           2      4.26%     74.47% |           1      2.13%     76.60% |           0      0.00%     76.60% |           1      2.13%     78.72% |           2      4.26%     82.98% |           3      6.38%     89.36% |           4      8.51%     97.87% |           1      2.13%    100.00%
system.ruby.L2Cache_Controller.MT_SB.L1_PUTX::total           47                      
system.ruby.L2Cache_Controller.MT_SB.Unblock |        1015      3.07%      3.07% |         913      2.76%      5.82% |         899      2.72%      8.54% |         899      2.72%     11.25% |         989      2.99%     14.24% |        1019      3.08%     17.32% |        1128      3.41%     20.73% |        1067      3.22%     23.95% |        1051      3.17%     27.12% |         914      2.76%     29.88% |         934      2.82%     32.70% |         906      2.74%     35.44% |         997      3.01%     38.45% |        1058      3.20%     41.65% |        1113      3.36%     45.01% |        1045      3.16%     48.17% |        1161      3.51%     51.67% |        1093      3.30%     54.97% |        1020      3.08%     58.05% |        1070      3.23%     61.29% |        1119      3.38%     64.67% |        1097      3.31%     67.98% |        1104      3.33%     71.31% |        1030      3.11%     74.42% |        1045      3.16%     77.58% |        1015      3.07%     80.65% |        1071      3.23%     83.88% |        1086      3.28%     87.16% |        1110      3.35%     90.51% |        1076      3.25%     93.76% |        1040      3.14%     96.90% |        1025      3.10%    100.00%
system.ruby.L2Cache_Controller.MT_SB.Unblock::total        33109                      
system.ruby.SimicsNetworkPortInterface_Controller.MessageSend |      488468     19.46%     19.46% |     1254801     50.00%     69.46% |      184883      7.37%     76.83% |      196560      7.83%     84.66% |      187899      7.49%     92.15% |      196991      7.85%    100.00% |           0      0.00%    100.00% |           0      0.00%    100.00% |           0      0.00%    100.00% |           0      0.00%    100.00% |           0      0.00%    100.00% |           0      0.00%    100.00% |           0      0.00%    100.00% |           0      0.00%    100.00% |           0      0.00%    100.00% |           0      0.00%    100.00% |           0      0.00%    100.00% |           0      0.00%    100.00% |           0      0.00%    100.00% |           0      0.00%    100.00% |           0      0.00%    100.00% |           0      0.00%    100.00% |           0      0.00%    100.00% |           0      0.00%    100.00% |           0      0.00%    100.00% |           0      0.00%    100.00% |           0      0.00%    100.00% |           0      0.00%    100.00% |           0      0.00%    100.00% |           0      0.00%    100.00% |           0      0.00%    100.00% |           0      0.00%    100.00%
system.ruby.SimicsNetworkPortInterface_Controller.MessageSend::total      2509602                      
system.ruby.SimicsNetworkPortInterface_Controller.MessageRecv |      488468     19.46%     19.46% |     1254801     50.00%     69.46% |      184883      7.37%     76.83% |      196560      7.83%     84.66% |      187899      7.49%     92.15% |      196991      7.85%    100.00% |           0      0.00%    100.00% |           0      0.00%    100.00% |           0      0.00%    100.00% |           0      0.00%    100.00% |           0      0.00%    100.00% |           0      0.00%    100.00% |           0      0.00%    100.00% |           0      0.00%    100.00% |           0      0.00%    100.00% |           0      0.00%    100.00% |           0      0.00%    100.00% |           0      0.00%    100.00% |           0      0.00%    100.00% |           0      0.00%    100.00% |           0      0.00%    100.00% |           0      0.00%    100.00% |           0      0.00%    100.00% |           0      0.00%    100.00% |           0      0.00%    100.00% |           0      0.00%    100.00% |           0      0.00%    100.00% |           0      0.00%    100.00% |           0      0.00%    100.00% |           0      0.00%    100.00% |           0      0.00%    100.00% |           0      0.00%    100.00%
system.ruby.SimicsNetworkPortInterface_Controller.MessageRecv::total      2509602                      
system.ruby.SimicsNetworkPortInterface_Controller.A.MessageSend |      488468     19.46%     19.46% |     1254801     50.00%     69.46% |      184883      7.37%     76.83% |      196560      7.83%     84.66% |      187899      7.49%     92.15% |      196991      7.85%    100.00% |           0      0.00%    100.00% |           0      0.00%    100.00% |           0      0.00%    100.00% |           0      0.00%    100.00% |           0      0.00%    100.00% |           0      0.00%    100.00% |           0      0.00%    100.00% |           0      0.00%    100.00% |           0      0.00%    100.00% |           0      0.00%    100.00% |           0      0.00%    100.00% |           0      0.00%    100.00% |           0      0.00%    100.00% |           0      0.00%    100.00% |           0      0.00%    100.00% |           0      0.00%    100.00% |           0      0.00%    100.00% |           0      0.00%    100.00% |           0      0.00%    100.00% |           0      0.00%    100.00% |           0      0.00%    100.00% |           0      0.00%    100.00% |           0      0.00%    100.00% |           0      0.00%    100.00% |           0      0.00%    100.00% |           0      0.00%    100.00%
system.ruby.SimicsNetworkPortInterface_Controller.A.MessageSend::total      2509602                      
system.ruby.SimicsNetworkPortInterface_Controller.A.MessageRecv |      488468     19.46%     19.46% |     1254801     50.00%     69.46% |      184883      7.37%     76.83% |      196560      7.83%     84.66% |      187899      7.49%     92.15% |      196991      7.85%    100.00% |           0      0.00%    100.00% |           0      0.00%    100.00% |           0      0.00%    100.00% |           0      0.00%    100.00% |           0      0.00%    100.00% |           0      0.00%    100.00% |           0      0.00%    100.00% |           0      0.00%    100.00% |           0      0.00%    100.00% |           0      0.00%    100.00% |           0      0.00%    100.00% |           0      0.00%    100.00% |           0      0.00%    100.00% |           0      0.00%    100.00% |           0      0.00%    100.00% |           0      0.00%    100.00% |           0      0.00%    100.00% |           0      0.00%    100.00% |           0      0.00%    100.00% |           0      0.00%    100.00% |           0      0.00%    100.00% |           0      0.00%    100.00% |           0      0.00%    100.00% |           0      0.00%    100.00% |           0      0.00%    100.00% |           0      0.00%    100.00%
system.ruby.SimicsNetworkPortInterface_Controller.A.MessageRecv::total      2509602                      
system.switch_cpus.kern.inst.arm                    0                       # number of arm instructions executed
system.switch_cpus.kern.inst.quiesce                0                       # number of quiesce instructions executed

---------- End Simulation Statistics   ----------
