
---------- Begin Simulation Statistics ----------
sim_seconds                                  0.060769                       # Number of seconds simulated
sim_ticks                                 60769194000                       # Number of ticks simulated
final_tick                               5236937272500                       # Number of ticks from beginning of simulation (restored from checkpoints and never reset)
sim_freq                                 1000000000000                       # Frequency of simulated ticks
host_inst_rate                                  75424                       # Simulator instruction rate (inst/s)
host_op_rate                                   125816                       # Simulator op (including micro ops) rate (op/s)
host_tick_rate                               89371719                       # Simulator tick rate (ticks/s)
host_mem_usage                                4527332                       # Number of bytes of host memory used
host_seconds                                   679.96                       # Real time elapsed on the host
sim_insts                                    51285136                       # Number of instructions simulated
sim_ops                                      85550015                       # Number of ops (including micro ops) simulated
system.voltage_domain.voltage                       1                       # Voltage in Volts
system.clk_domain.clock                           500                       # Clock period in ticks
system.mem_ctrls0.bytes_read::ruby.dir_cntrl0      4973504                       # Number of bytes read from this memory
system.mem_ctrls0.bytes_read::total           4973504                       # Number of bytes read from this memory
system.mem_ctrls0.bytes_written::ruby.dir_cntrl0      3963968                       # Number of bytes written to this memory
system.mem_ctrls0.bytes_written::total        3963968                       # Number of bytes written to this memory
system.mem_ctrls0.num_reads::ruby.dir_cntrl0        77711                       # Number of read requests responded to by this memory
system.mem_ctrls0.num_reads::total              77711                       # Number of read requests responded to by this memory
system.mem_ctrls0.num_writes::ruby.dir_cntrl0        61937                       # Number of write requests responded to by this memory
system.mem_ctrls0.num_writes::total             61937                       # Number of write requests responded to by this memory
system.mem_ctrls0.bw_read::ruby.dir_cntrl0     81842520                       # Total read bandwidth from this memory (bytes/s)
system.mem_ctrls0.bw_read::total             81842520                       # Total read bandwidth from this memory (bytes/s)
system.mem_ctrls0.bw_write::ruby.dir_cntrl0     65229893                       # Write bandwidth from this memory (bytes/s)
system.mem_ctrls0.bw_write::total            65229893                       # Write bandwidth from this memory (bytes/s)
system.mem_ctrls0.bw_total::ruby.dir_cntrl0    147072413                       # Total bandwidth to/from this memory (bytes/s)
system.mem_ctrls0.bw_total::total           147072413                       # Total bandwidth to/from this memory (bytes/s)
system.mem_ctrls0.readReqs                      77711                       # Number of read requests accepted
system.mem_ctrls0.writeReqs                     61937                       # Number of write requests accepted
system.mem_ctrls0.readBursts                    77711                       # Number of DRAM read bursts, including those serviced by the write queue
system.mem_ctrls0.writeBursts                   61937                       # Number of DRAM write bursts, including those merged in the write queue
system.mem_ctrls0.bytesReadDRAM               4972032                       # Total number of bytes read from DRAM
system.mem_ctrls0.bytesReadWrQ                   1472                       # Total number of bytes read from write queue
system.mem_ctrls0.bytesWritten                3963840                       # Total number of bytes written to DRAM
system.mem_ctrls0.bytesReadSys                4973504                       # Total read bytes from the system interface side
system.mem_ctrls0.bytesWrittenSys             3963968                       # Total written bytes from the system interface side
system.mem_ctrls0.servicedByWrQ                    23                       # Number of DRAM read bursts serviced by the write queue
system.mem_ctrls0.mergedWrBursts                    0                       # Number of DRAM write bursts merged with an existing one
system.mem_ctrls0.neitherReadNorWriteReqs            0                       # Number of requests that are neither read nor write
system.mem_ctrls0.perBankRdBursts::0             4395                       # Per bank write bursts
system.mem_ctrls0.perBankRdBursts::1             4847                       # Per bank write bursts
system.mem_ctrls0.perBankRdBursts::2             4572                       # Per bank write bursts
system.mem_ctrls0.perBankRdBursts::3             4966                       # Per bank write bursts
system.mem_ctrls0.perBankRdBursts::4             4841                       # Per bank write bursts
system.mem_ctrls0.perBankRdBursts::5             5359                       # Per bank write bursts
system.mem_ctrls0.perBankRdBursts::6             4954                       # Per bank write bursts
system.mem_ctrls0.perBankRdBursts::7             5226                       # Per bank write bursts
system.mem_ctrls0.perBankRdBursts::8             5055                       # Per bank write bursts
system.mem_ctrls0.perBankRdBursts::9             5194                       # Per bank write bursts
system.mem_ctrls0.perBankRdBursts::10            4637                       # Per bank write bursts
system.mem_ctrls0.perBankRdBursts::11            4793                       # Per bank write bursts
system.mem_ctrls0.perBankRdBursts::12            4580                       # Per bank write bursts
system.mem_ctrls0.perBankRdBursts::13            4642                       # Per bank write bursts
system.mem_ctrls0.perBankRdBursts::14            4807                       # Per bank write bursts
system.mem_ctrls0.perBankRdBursts::15            4820                       # Per bank write bursts
system.mem_ctrls0.perBankWrBursts::0             3620                       # Per bank write bursts
system.mem_ctrls0.perBankWrBursts::1             3562                       # Per bank write bursts
system.mem_ctrls0.perBankWrBursts::2             3661                       # Per bank write bursts
system.mem_ctrls0.perBankWrBursts::3             3794                       # Per bank write bursts
system.mem_ctrls0.perBankWrBursts::4             3851                       # Per bank write bursts
system.mem_ctrls0.perBankWrBursts::5             4193                       # Per bank write bursts
system.mem_ctrls0.perBankWrBursts::6             3915                       # Per bank write bursts
system.mem_ctrls0.perBankWrBursts::7             4184                       # Per bank write bursts
system.mem_ctrls0.perBankWrBursts::8             4054                       # Per bank write bursts
system.mem_ctrls0.perBankWrBursts::9             4126                       # Per bank write bursts
system.mem_ctrls0.perBankWrBursts::10            3705                       # Per bank write bursts
system.mem_ctrls0.perBankWrBursts::11            3640                       # Per bank write bursts
system.mem_ctrls0.perBankWrBursts::12            3782                       # Per bank write bursts
system.mem_ctrls0.perBankWrBursts::13            3906                       # Per bank write bursts
system.mem_ctrls0.perBankWrBursts::14            4031                       # Per bank write bursts
system.mem_ctrls0.perBankWrBursts::15            3911                       # Per bank write bursts
system.mem_ctrls0.numRdRetry                        0                       # Number of times read queue was full causing retry
system.mem_ctrls0.numWrRetry                        0                       # Number of times write queue was full causing retry
system.mem_ctrls0.totGap                  60768713000                       # Total gap between requests
system.mem_ctrls0.readPktSize::0                    0                       # Read request sizes (log2)
system.mem_ctrls0.readPktSize::1                    0                       # Read request sizes (log2)
system.mem_ctrls0.readPktSize::2                    0                       # Read request sizes (log2)
system.mem_ctrls0.readPktSize::3                    0                       # Read request sizes (log2)
system.mem_ctrls0.readPktSize::4                    0                       # Read request sizes (log2)
system.mem_ctrls0.readPktSize::5                    0                       # Read request sizes (log2)
system.mem_ctrls0.readPktSize::6                77711                       # Read request sizes (log2)
system.mem_ctrls0.writePktSize::0                   0                       # Write request sizes (log2)
system.mem_ctrls0.writePktSize::1                   0                       # Write request sizes (log2)
system.mem_ctrls0.writePktSize::2                   0                       # Write request sizes (log2)
system.mem_ctrls0.writePktSize::3                   0                       # Write request sizes (log2)
system.mem_ctrls0.writePktSize::4                   0                       # Write request sizes (log2)
system.mem_ctrls0.writePktSize::5                   0                       # Write request sizes (log2)
system.mem_ctrls0.writePktSize::6               61937                       # Write request sizes (log2)
system.mem_ctrls0.rdQLenPdf::0                  75586                       # What read queue length does an incoming req see
system.mem_ctrls0.rdQLenPdf::1                   1741                       # What read queue length does an incoming req see
system.mem_ctrls0.rdQLenPdf::2                    318                       # What read queue length does an incoming req see
system.mem_ctrls0.rdQLenPdf::3                     31                       # What read queue length does an incoming req see
system.mem_ctrls0.rdQLenPdf::4                      9                       # What read queue length does an incoming req see
system.mem_ctrls0.rdQLenPdf::5                      3                       # What read queue length does an incoming req see
system.mem_ctrls0.rdQLenPdf::6                      0                       # What read queue length does an incoming req see
system.mem_ctrls0.rdQLenPdf::7                      0                       # What read queue length does an incoming req see
system.mem_ctrls0.rdQLenPdf::8                      0                       # What read queue length does an incoming req see
system.mem_ctrls0.rdQLenPdf::9                      0                       # What read queue length does an incoming req see
system.mem_ctrls0.rdQLenPdf::10                     0                       # What read queue length does an incoming req see
system.mem_ctrls0.rdQLenPdf::11                     0                       # What read queue length does an incoming req see
system.mem_ctrls0.rdQLenPdf::12                     0                       # What read queue length does an incoming req see
system.mem_ctrls0.rdQLenPdf::13                     0                       # What read queue length does an incoming req see
system.mem_ctrls0.rdQLenPdf::14                     0                       # What read queue length does an incoming req see
system.mem_ctrls0.rdQLenPdf::15                     0                       # What read queue length does an incoming req see
system.mem_ctrls0.rdQLenPdf::16                     0                       # What read queue length does an incoming req see
system.mem_ctrls0.rdQLenPdf::17                     0                       # What read queue length does an incoming req see
system.mem_ctrls0.rdQLenPdf::18                     0                       # What read queue length does an incoming req see
system.mem_ctrls0.rdQLenPdf::19                     0                       # What read queue length does an incoming req see
system.mem_ctrls0.rdQLenPdf::20                     0                       # What read queue length does an incoming req see
system.mem_ctrls0.rdQLenPdf::21                     0                       # What read queue length does an incoming req see
system.mem_ctrls0.rdQLenPdf::22                     0                       # What read queue length does an incoming req see
system.mem_ctrls0.rdQLenPdf::23                     0                       # What read queue length does an incoming req see
system.mem_ctrls0.rdQLenPdf::24                     0                       # What read queue length does an incoming req see
system.mem_ctrls0.rdQLenPdf::25                     0                       # What read queue length does an incoming req see
system.mem_ctrls0.rdQLenPdf::26                     0                       # What read queue length does an incoming req see
system.mem_ctrls0.rdQLenPdf::27                     0                       # What read queue length does an incoming req see
system.mem_ctrls0.rdQLenPdf::28                     0                       # What read queue length does an incoming req see
system.mem_ctrls0.rdQLenPdf::29                     0                       # What read queue length does an incoming req see
system.mem_ctrls0.rdQLenPdf::30                     0                       # What read queue length does an incoming req see
system.mem_ctrls0.rdQLenPdf::31                     0                       # What read queue length does an incoming req see
system.mem_ctrls0.wrQLenPdf::0                  12295                       # What write queue length does an incoming req see
system.mem_ctrls0.wrQLenPdf::1                  12524                       # What write queue length does an incoming req see
system.mem_ctrls0.wrQLenPdf::2                  12430                       # What write queue length does an incoming req see
system.mem_ctrls0.wrQLenPdf::3                  12330                       # What write queue length does an incoming req see
system.mem_ctrls0.wrQLenPdf::4                  12308                       # What write queue length does an incoming req see
system.mem_ctrls0.wrQLenPdf::5                     38                       # What write queue length does an incoming req see
system.mem_ctrls0.wrQLenPdf::6                     11                       # What write queue length does an incoming req see
system.mem_ctrls0.wrQLenPdf::7                      1                       # What write queue length does an incoming req see
system.mem_ctrls0.bytesPerActivate::samples        42758                       # Bytes accessed per row activation
system.mem_ctrls0.bytesPerActivate::mean   208.966182                       # Bytes accessed per row activation
system.mem_ctrls0.bytesPerActivate::gmean   151.565889                       # Bytes accessed per row activation
system.mem_ctrls0.bytesPerActivate::stdev   188.276484                       # Bytes accessed per row activation
system.mem_ctrls0.bytesPerActivate::0-127        15662     36.63%     36.63% # Bytes accessed per row activation
system.mem_ctrls0.bytesPerActivate::128-255        11508     26.91%     63.54% # Bytes accessed per row activation
system.mem_ctrls0.bytesPerActivate::256-383        10760     25.16%     88.71% # Bytes accessed per row activation
system.mem_ctrls0.bytesPerActivate::384-511         1729      4.04%     92.75% # Bytes accessed per row activation
system.mem_ctrls0.bytesPerActivate::512-639         1169      2.73%     95.49% # Bytes accessed per row activation
system.mem_ctrls0.bytesPerActivate::640-767          558      1.31%     96.79% # Bytes accessed per row activation
system.mem_ctrls0.bytesPerActivate::768-895          380      0.89%     97.68% # Bytes accessed per row activation
system.mem_ctrls0.bytesPerActivate::896-1023          401      0.94%     98.62% # Bytes accessed per row activation
system.mem_ctrls0.bytesPerActivate::1024-1151          591      1.38%    100.00% # Bytes accessed per row activation
system.mem_ctrls0.bytesPerActivate::total        42758                       # Bytes accessed per row activation
system.mem_ctrls0.rdPerTurnAround::samples        12294                       # Reads before turning the bus around for writes
system.mem_ctrls0.rdPerTurnAround::mean      6.318611                       # Reads before turning the bus around for writes
system.mem_ctrls0.rdPerTurnAround::stdev    36.432997                       # Reads before turning the bus around for writes
system.mem_ctrls0.rdPerTurnAround::0-127        12288     99.95%     99.95% # Reads before turning the bus around for writes
system.mem_ctrls0.rdPerTurnAround::128-255            5      0.04%     99.99% # Reads before turning the bus around for writes
system.mem_ctrls0.rdPerTurnAround::3968-4095            1      0.01%    100.00% # Reads before turning the bus around for writes
system.mem_ctrls0.rdPerTurnAround::total        12294                       # Reads before turning the bus around for writes
system.mem_ctrls0.wrPerTurnAround::samples        12294                       # Writes before turning the bus around for reads
system.mem_ctrls0.wrPerTurnAround::mean      5.037823                       # Writes before turning the bus around for reads
system.mem_ctrls0.wrPerTurnAround::gmean     5.033490                       # Writes before turning the bus around for reads
system.mem_ctrls0.wrPerTurnAround::stdev     0.230550                       # Writes before turning the bus around for reads
system.mem_ctrls0.wrPerTurnAround::4-5          11909     96.87%     96.87% # Writes before turning the bus around for reads
system.mem_ctrls0.wrPerTurnAround::6-7            367      2.99%     99.85% # Writes before turning the bus around for reads
system.mem_ctrls0.wrPerTurnAround::8-9             17      0.14%     99.99% # Writes before turning the bus around for reads
system.mem_ctrls0.wrPerTurnAround::10-11            1      0.01%    100.00% # Writes before turning the bus around for reads
system.mem_ctrls0.wrPerTurnAround::total        12294                       # Writes before turning the bus around for reads
system.mem_ctrls0.totQLat                   800553000                       # Total ticks spent queuing
system.mem_ctrls0.totMemAccLat             2257203000                       # Total ticks spent from burst creation until serviced by the DRAM
system.mem_ctrls0.totBusLat                 388440000                       # Total ticks spent in databus transfers
system.mem_ctrls0.avgQLat                    10304.72                       # Average queueing delay per DRAM burst
system.mem_ctrls0.avgBusLat                   5000.00                       # Average bus latency per DRAM burst
system.mem_ctrls0.avgMemAccLat               29054.72                       # Average memory access latency per DRAM burst
system.mem_ctrls0.avgRdBW                       81.82                       # Average DRAM read bandwidth in MiByte/s
system.mem_ctrls0.avgWrBW                       65.23                       # Average achieved write bandwidth in MiByte/s
system.mem_ctrls0.avgRdBWSys                    81.84                       # Average system read bandwidth in MiByte/s
system.mem_ctrls0.avgWrBWSys                    65.23                       # Average system write bandwidth in MiByte/s
system.mem_ctrls0.peakBW                     12800.00                       # Theoretical peak bandwidth in MiByte/s
system.mem_ctrls0.busUtil                        1.15                       # Data bus utilization in percentage
system.mem_ctrls0.busUtilRead                    0.64                       # Data bus utilization in percentage for reads
system.mem_ctrls0.busUtilWrite                   0.51                       # Data bus utilization in percentage for writes
system.mem_ctrls0.avgRdQLen                      1.03                       # Average read queue length when enqueuing
system.mem_ctrls0.avgWrQLen                      2.90                       # Average write queue length when enqueuing
system.mem_ctrls0.readRowHits                   56812                       # Number of row buffer hits during reads
system.mem_ctrls0.writeRowHits                  40045                       # Number of row buffer hits during writes
system.mem_ctrls0.readRowHitRate                73.13                       # Row buffer hit rate for reads
system.mem_ctrls0.writeRowHitRate               64.65                       # Row buffer hit rate for writes
system.mem_ctrls0.avgGap                    435156.34                       # Average gap between requests
system.mem_ctrls0.pageHitRate                   69.37                       # Row buffer hit rate, read and write combined
system.mem_ctrls0.memoryStateTime::IDLE   12018925750                       # Time in different power states
system.mem_ctrls0.memoryStateTime::REF     2029040000                       # Time in different power states
system.mem_ctrls0.memoryStateTime::PRE_PDN            0                       # Time in different power states
system.mem_ctrls0.memoryStateTime::ACT    46716744250                       # Time in different power states
system.mem_ctrls0.memoryStateTime::ACT_PDN            0                       # Time in different power states
system.mem_ctrls0.actEnergy::0              163583280                       # Energy for activate commands per rank (pJ)
system.mem_ctrls0.actEnergy::1              159614280                       # Energy for activate commands per rank (pJ)
system.mem_ctrls0.preEnergy::0               89256750                       # Energy for precharge commands per rank (pJ)
system.mem_ctrls0.preEnergy::1               87091125                       # Energy for precharge commands per rank (pJ)
system.mem_ctrls0.readEnergy::0             305393400                       # Energy for read commands per rank (pJ)
system.mem_ctrls0.readEnergy::1             300448200                       # Energy for read commands per rank (pJ)
system.mem_ctrls0.writeEnergy::0            199434960                       # Energy for write commands per rank (pJ)
system.mem_ctrls0.writeEnergy::1            201839040                       # Energy for write commands per rank (pJ)
system.mem_ctrls0.refreshEnergy::0         3968802240                       # Energy for refresh commands per rank (pJ)
system.mem_ctrls0.refreshEnergy::1         3968802240                       # Energy for refresh commands per rank (pJ)
system.mem_ctrls0.actBackEnergy::0        25272573075                       # Energy for active background per rank (pJ)
system.mem_ctrls0.actBackEnergy::1        25011234630                       # Energy for active background per rank (pJ)
system.mem_ctrls0.preBackEnergy::0        14289569250                       # Energy for precharge background per rank (pJ)
system.mem_ctrls0.preBackEnergy::1        14518813500                       # Energy for precharge background per rank (pJ)
system.mem_ctrls0.totalEnergy::0          44288612955                       # Total energy per rank (pJ)
system.mem_ctrls0.totalEnergy::1          44247843015                       # Total energy per rank (pJ)
system.mem_ctrls0.averagePower::0          728.860838                       # Core power per rank (mW)
system.mem_ctrls0.averagePower::1          728.189885                       # Core power per rank (mW)
system.mem_ctrls1.bytes_read::ruby.dir_cntrl1      4888704                       # Number of bytes read from this memory
system.mem_ctrls1.bytes_read::total           4888704                       # Number of bytes read from this memory
system.mem_ctrls1.bytes_written::ruby.dir_cntrl1      3885952                       # Number of bytes written to this memory
system.mem_ctrls1.bytes_written::total        3885952                       # Number of bytes written to this memory
system.mem_ctrls1.num_reads::ruby.dir_cntrl1        76386                       # Number of read requests responded to by this memory
system.mem_ctrls1.num_reads::total              76386                       # Number of read requests responded to by this memory
system.mem_ctrls1.num_writes::ruby.dir_cntrl1        60718                       # Number of write requests responded to by this memory
system.mem_ctrls1.num_writes::total             60718                       # Number of write requests responded to by this memory
system.mem_ctrls1.bw_read::ruby.dir_cntrl1     80447077                       # Total read bandwidth from this memory (bytes/s)
system.mem_ctrls1.bw_read::total             80447077                       # Total read bandwidth from this memory (bytes/s)
system.mem_ctrls1.bw_write::ruby.dir_cntrl1     63946084                       # Write bandwidth from this memory (bytes/s)
system.mem_ctrls1.bw_write::total            63946084                       # Write bandwidth from this memory (bytes/s)
system.mem_ctrls1.bw_total::ruby.dir_cntrl1    144393161                       # Total bandwidth to/from this memory (bytes/s)
system.mem_ctrls1.bw_total::total           144393161                       # Total bandwidth to/from this memory (bytes/s)
system.mem_ctrls1.readReqs                      76386                       # Number of read requests accepted
system.mem_ctrls1.writeReqs                     60718                       # Number of write requests accepted
system.mem_ctrls1.readBursts                    76386                       # Number of DRAM read bursts, including those serviced by the write queue
system.mem_ctrls1.writeBursts                   60718                       # Number of DRAM write bursts, including those merged in the write queue
system.mem_ctrls1.bytesReadDRAM               4887808                       # Total number of bytes read from DRAM
system.mem_ctrls1.bytesReadWrQ                    896                       # Total number of bytes read from write queue
system.mem_ctrls1.bytesWritten                3885760                       # Total number of bytes written to DRAM
system.mem_ctrls1.bytesReadSys                4888704                       # Total read bytes from the system interface side
system.mem_ctrls1.bytesWrittenSys             3885952                       # Total written bytes from the system interface side
system.mem_ctrls1.servicedByWrQ                    14                       # Number of DRAM read bursts serviced by the write queue
system.mem_ctrls1.mergedWrBursts                    0                       # Number of DRAM write bursts merged with an existing one
system.mem_ctrls1.neitherReadNorWriteReqs            0                       # Number of requests that are neither read nor write
system.mem_ctrls1.perBankRdBursts::0             4324                       # Per bank write bursts
system.mem_ctrls1.perBankRdBursts::1             4761                       # Per bank write bursts
system.mem_ctrls1.perBankRdBursts::2             4486                       # Per bank write bursts
system.mem_ctrls1.perBankRdBursts::3             4894                       # Per bank write bursts
system.mem_ctrls1.perBankRdBursts::4             4782                       # Per bank write bursts
system.mem_ctrls1.perBankRdBursts::5             5310                       # Per bank write bursts
system.mem_ctrls1.perBankRdBursts::6             4894                       # Per bank write bursts
system.mem_ctrls1.perBankRdBursts::7             5163                       # Per bank write bursts
system.mem_ctrls1.perBankRdBursts::8             4955                       # Per bank write bursts
system.mem_ctrls1.perBankRdBursts::9             5093                       # Per bank write bursts
system.mem_ctrls1.perBankRdBursts::10            4530                       # Per bank write bursts
system.mem_ctrls1.perBankRdBursts::11            4727                       # Per bank write bursts
system.mem_ctrls1.perBankRdBursts::12            4488                       # Per bank write bursts
system.mem_ctrls1.perBankRdBursts::13            4580                       # Per bank write bursts
system.mem_ctrls1.perBankRdBursts::14            4639                       # Per bank write bursts
system.mem_ctrls1.perBankRdBursts::15            4746                       # Per bank write bursts
system.mem_ctrls1.perBankWrBursts::0             3554                       # Per bank write bursts
system.mem_ctrls1.perBankWrBursts::1             3508                       # Per bank write bursts
system.mem_ctrls1.perBankWrBursts::2             3596                       # Per bank write bursts
system.mem_ctrls1.perBankWrBursts::3             3743                       # Per bank write bursts
system.mem_ctrls1.perBankWrBursts::4             3788                       # Per bank write bursts
system.mem_ctrls1.perBankWrBursts::5             4126                       # Per bank write bursts
system.mem_ctrls1.perBankWrBursts::6             3835                       # Per bank write bursts
system.mem_ctrls1.perBankWrBursts::7             4096                       # Per bank write bursts
system.mem_ctrls1.perBankWrBursts::8             3967                       # Per bank write bursts
system.mem_ctrls1.perBankWrBursts::9             4032                       # Per bank write bursts
system.mem_ctrls1.perBankWrBursts::10            3619                       # Per bank write bursts
system.mem_ctrls1.perBankWrBursts::11            3570                       # Per bank write bursts
system.mem_ctrls1.perBankWrBursts::12            3710                       # Per bank write bursts
system.mem_ctrls1.perBankWrBursts::13            3832                       # Per bank write bursts
system.mem_ctrls1.perBankWrBursts::14            3900                       # Per bank write bursts
system.mem_ctrls1.perBankWrBursts::15            3839                       # Per bank write bursts
system.mem_ctrls1.numRdRetry                        0                       # Number of times read queue was full causing retry
system.mem_ctrls1.numWrRetry                        0                       # Number of times write queue was full causing retry
system.mem_ctrls1.totGap                  60768476500                       # Total gap between requests
system.mem_ctrls1.readPktSize::0                    0                       # Read request sizes (log2)
system.mem_ctrls1.readPktSize::1                    0                       # Read request sizes (log2)
system.mem_ctrls1.readPktSize::2                    0                       # Read request sizes (log2)
system.mem_ctrls1.readPktSize::3                    0                       # Read request sizes (log2)
system.mem_ctrls1.readPktSize::4                    0                       # Read request sizes (log2)
system.mem_ctrls1.readPktSize::5                    0                       # Read request sizes (log2)
system.mem_ctrls1.readPktSize::6                76386                       # Read request sizes (log2)
system.mem_ctrls1.writePktSize::0                   0                       # Write request sizes (log2)
system.mem_ctrls1.writePktSize::1                   0                       # Write request sizes (log2)
system.mem_ctrls1.writePktSize::2                   0                       # Write request sizes (log2)
system.mem_ctrls1.writePktSize::3                   0                       # Write request sizes (log2)
system.mem_ctrls1.writePktSize::4                   0                       # Write request sizes (log2)
system.mem_ctrls1.writePktSize::5                   0                       # Write request sizes (log2)
system.mem_ctrls1.writePktSize::6               60718                       # Write request sizes (log2)
system.mem_ctrls1.rdQLenPdf::0                  74958                       # What read queue length does an incoming req see
system.mem_ctrls1.rdQLenPdf::1                   1264                       # What read queue length does an incoming req see
system.mem_ctrls1.rdQLenPdf::2                    115                       # What read queue length does an incoming req see
system.mem_ctrls1.rdQLenPdf::3                     29                       # What read queue length does an incoming req see
system.mem_ctrls1.rdQLenPdf::4                      6                       # What read queue length does an incoming req see
system.mem_ctrls1.rdQLenPdf::5                      0                       # What read queue length does an incoming req see
system.mem_ctrls1.rdQLenPdf::6                      0                       # What read queue length does an incoming req see
system.mem_ctrls1.rdQLenPdf::7                      0                       # What read queue length does an incoming req see
system.mem_ctrls1.rdQLenPdf::8                      0                       # What read queue length does an incoming req see
system.mem_ctrls1.rdQLenPdf::9                      0                       # What read queue length does an incoming req see
system.mem_ctrls1.rdQLenPdf::10                     0                       # What read queue length does an incoming req see
system.mem_ctrls1.rdQLenPdf::11                     0                       # What read queue length does an incoming req see
system.mem_ctrls1.rdQLenPdf::12                     0                       # What read queue length does an incoming req see
system.mem_ctrls1.rdQLenPdf::13                     0                       # What read queue length does an incoming req see
system.mem_ctrls1.rdQLenPdf::14                     0                       # What read queue length does an incoming req see
system.mem_ctrls1.rdQLenPdf::15                     0                       # What read queue length does an incoming req see
system.mem_ctrls1.rdQLenPdf::16                     0                       # What read queue length does an incoming req see
system.mem_ctrls1.rdQLenPdf::17                     0                       # What read queue length does an incoming req see
system.mem_ctrls1.rdQLenPdf::18                     0                       # What read queue length does an incoming req see
system.mem_ctrls1.rdQLenPdf::19                     0                       # What read queue length does an incoming req see
system.mem_ctrls1.rdQLenPdf::20                     0                       # What read queue length does an incoming req see
system.mem_ctrls1.rdQLenPdf::21                     0                       # What read queue length does an incoming req see
system.mem_ctrls1.rdQLenPdf::22                     0                       # What read queue length does an incoming req see
system.mem_ctrls1.rdQLenPdf::23                     0                       # What read queue length does an incoming req see
system.mem_ctrls1.rdQLenPdf::24                     0                       # What read queue length does an incoming req see
system.mem_ctrls1.rdQLenPdf::25                     0                       # What read queue length does an incoming req see
system.mem_ctrls1.rdQLenPdf::26                     0                       # What read queue length does an incoming req see
system.mem_ctrls1.rdQLenPdf::27                     0                       # What read queue length does an incoming req see
system.mem_ctrls1.rdQLenPdf::28                     0                       # What read queue length does an incoming req see
system.mem_ctrls1.rdQLenPdf::29                     0                       # What read queue length does an incoming req see
system.mem_ctrls1.rdQLenPdf::30                     0                       # What read queue length does an incoming req see
system.mem_ctrls1.rdQLenPdf::31                     0                       # What read queue length does an incoming req see
system.mem_ctrls1.wrQLenPdf::0                  12077                       # What write queue length does an incoming req see
system.mem_ctrls1.wrQLenPdf::1                  12221                       # What write queue length does an incoming req see
system.mem_ctrls1.wrQLenPdf::2                  12149                       # What write queue length does an incoming req see
system.mem_ctrls1.wrQLenPdf::3                  12103                       # What write queue length does an incoming req see
system.mem_ctrls1.wrQLenPdf::4                  12088                       # What write queue length does an incoming req see
system.mem_ctrls1.wrQLenPdf::5                     59                       # What write queue length does an incoming req see
system.mem_ctrls1.wrQLenPdf::6                     15                       # What write queue length does an incoming req see
system.mem_ctrls1.wrQLenPdf::7                      6                       # What write queue length does an incoming req see
system.mem_ctrls1.bytesPerActivate::samples        40226                       # Bytes accessed per row activation
system.mem_ctrls1.bytesPerActivate::mean   218.070303                       # Bytes accessed per row activation
system.mem_ctrls1.bytesPerActivate::gmean   158.969697                       # Bytes accessed per row activation
system.mem_ctrls1.bytesPerActivate::stdev   192.183463                       # Bytes accessed per row activation
system.mem_ctrls1.bytesPerActivate::0-127        13545     33.67%     33.67% # Bytes accessed per row activation
system.mem_ctrls1.bytesPerActivate::128-255        11155     27.73%     61.40% # Bytes accessed per row activation
system.mem_ctrls1.bytesPerActivate::256-383        10638     26.45%     87.85% # Bytes accessed per row activation
system.mem_ctrls1.bytesPerActivate::384-511         1730      4.30%     92.15% # Bytes accessed per row activation
system.mem_ctrls1.bytesPerActivate::512-639         1190      2.96%     95.11% # Bytes accessed per row activation
system.mem_ctrls1.bytesPerActivate::640-767          580      1.44%     96.55% # Bytes accessed per row activation
system.mem_ctrls1.bytesPerActivate::768-895          385      0.96%     97.51% # Bytes accessed per row activation
system.mem_ctrls1.bytesPerActivate::896-1023          406      1.01%     98.52% # Bytes accessed per row activation
system.mem_ctrls1.bytesPerActivate::1024-1151          597      1.48%    100.00% # Bytes accessed per row activation
system.mem_ctrls1.bytesPerActivate::total        40226                       # Bytes accessed per row activation
system.mem_ctrls1.rdPerTurnAround::samples        12076                       # Reads before turning the bus around for writes
system.mem_ctrls1.rdPerTurnAround::mean      6.323617                       # Reads before turning the bus around for writes
system.mem_ctrls1.rdPerTurnAround::stdev    28.996653                       # Reads before turning the bus around for writes
system.mem_ctrls1.rdPerTurnAround::0-127        12071     99.96%     99.96% # Reads before turning the bus around for writes
system.mem_ctrls1.rdPerTurnAround::128-255            3      0.02%     99.98% # Reads before turning the bus around for writes
system.mem_ctrls1.rdPerTurnAround::1152-1279            1      0.01%     99.99% # Reads before turning the bus around for writes
system.mem_ctrls1.rdPerTurnAround::2816-2943            1      0.01%    100.00% # Reads before turning the bus around for writes
system.mem_ctrls1.rdPerTurnAround::total        12076                       # Reads before turning the bus around for writes
system.mem_ctrls1.wrPerTurnAround::samples        12076                       # Writes before turning the bus around for reads
system.mem_ctrls1.wrPerTurnAround::mean      5.027741                       # Writes before turning the bus around for reads
system.mem_ctrls1.wrPerTurnAround::gmean     5.024569                       # Writes before turning the bus around for reads
system.mem_ctrls1.wrPerTurnAround::stdev     0.197648                       # Writes before turning the bus around for reads
system.mem_ctrls1.wrPerTurnAround::4-5          11793     97.66%     97.66% # Writes before turning the bus around for reads
system.mem_ctrls1.wrPerTurnAround::6-7            268      2.22%     99.88% # Writes before turning the bus around for reads
system.mem_ctrls1.wrPerTurnAround::8-9             15      0.12%    100.00% # Writes before turning the bus around for reads
system.mem_ctrls1.wrPerTurnAround::total        12076                       # Writes before turning the bus around for reads
system.mem_ctrls1.totQLat                   729552500                       # Total ticks spent queuing
system.mem_ctrls1.totMemAccLat             2161527500                       # Total ticks spent from burst creation until serviced by the DRAM
system.mem_ctrls1.totBusLat                 381860000                       # Total ticks spent in databus transfers
system.mem_ctrls1.avgQLat                     9552.62                       # Average queueing delay per DRAM burst
system.mem_ctrls1.avgBusLat                   5000.00                       # Average bus latency per DRAM burst
system.mem_ctrls1.avgMemAccLat               28302.62                       # Average memory access latency per DRAM burst
system.mem_ctrls1.avgRdBW                       80.43                       # Average DRAM read bandwidth in MiByte/s
system.mem_ctrls1.avgWrBW                       63.94                       # Average achieved write bandwidth in MiByte/s
system.mem_ctrls1.avgRdBWSys                    80.45                       # Average system read bandwidth in MiByte/s
system.mem_ctrls1.avgWrBWSys                    63.95                       # Average system write bandwidth in MiByte/s
system.mem_ctrls1.peakBW                     12800.00                       # Theoretical peak bandwidth in MiByte/s
system.mem_ctrls1.busUtil                        1.13                       # Data bus utilization in percentage
system.mem_ctrls1.busUtilRead                    0.63                       # Data bus utilization in percentage for reads
system.mem_ctrls1.busUtilWrite                   0.50                       # Data bus utilization in percentage for writes
system.mem_ctrls1.avgRdQLen                      1.01                       # Average read queue length when enqueuing
system.mem_ctrls1.avgWrQLen                      2.93                       # Average write queue length when enqueuing
system.mem_ctrls1.readRowHits                   56368                       # Number of row buffer hits during reads
system.mem_ctrls1.writeRowHits                  40482                       # Number of row buffer hits during writes
system.mem_ctrls1.readRowHitRate                73.81                       # Row buffer hit rate for reads
system.mem_ctrls1.writeRowHitRate               66.67                       # Row buffer hit rate for writes
system.mem_ctrls1.avgGap                    443229.06                       # Average gap between requests
system.mem_ctrls1.pageHitRate                   70.65                       # Row buffer hit rate, read and write combined
system.mem_ctrls1.memoryStateTime::IDLE   12596609750                       # Time in different power states
system.mem_ctrls1.memoryStateTime::REF     2029040000                       # Time in different power states
system.mem_ctrls1.memoryStateTime::PRE_PDN            0                       # Time in different power states
system.mem_ctrls1.memoryStateTime::ACT    46138519000                       # Time in different power states
system.mem_ctrls1.memoryStateTime::ACT_PDN            0                       # Time in different power states
system.mem_ctrls1.actEnergy::0              155373120                       # Energy for activate commands per rank (pJ)
system.mem_ctrls1.actEnergy::1              148690080                       # Energy for activate commands per rank (pJ)
system.mem_ctrls1.preEnergy::0               84777000                       # Energy for precharge commands per rank (pJ)
system.mem_ctrls1.preEnergy::1               81130500                       # Energy for precharge commands per rank (pJ)
system.mem_ctrls1.readEnergy::0             301103400                       # Energy for read commands per rank (pJ)
system.mem_ctrls1.readEnergy::1             294426600                       # Energy for read commands per rank (pJ)
system.mem_ctrls1.writeEnergy::0            195987600                       # Energy for write commands per rank (pJ)
system.mem_ctrls1.writeEnergy::1            197380800                       # Energy for write commands per rank (pJ)
system.mem_ctrls1.refreshEnergy::0         3968802240                       # Energy for refresh commands per rank (pJ)
system.mem_ctrls1.refreshEnergy::1         3968802240                       # Energy for refresh commands per rank (pJ)
system.mem_ctrls1.actBackEnergy::0        24912804465                       # Energy for active background per rank (pJ)
system.mem_ctrls1.actBackEnergy::1        24342327090                       # Energy for active background per rank (pJ)
system.mem_ctrls1.preBackEnergy::0        14605155750                       # Energy for precharge background per rank (pJ)
system.mem_ctrls1.preBackEnergy::1        15105574500                       # Energy for precharge background per rank (pJ)
system.mem_ctrls1.totalEnergy::0          44224003575                       # Total energy per rank (pJ)
system.mem_ctrls1.totalEnergy::1          44138331810                       # Total energy per rank (pJ)
system.mem_ctrls1.averagePower::0          727.797557                       # Core power per rank (mW)
system.mem_ctrls1.averagePower::1          726.387651                       # Core power per rank (mW)
system.mem_ctrls2.bytes_read::ruby.dir_cntrl2      4888512                       # Number of bytes read from this memory
system.mem_ctrls2.bytes_read::total           4888512                       # Number of bytes read from this memory
system.mem_ctrls2.bytes_written::ruby.dir_cntrl2      3887168                       # Number of bytes written to this memory
system.mem_ctrls2.bytes_written::total        3887168                       # Number of bytes written to this memory
system.mem_ctrls2.num_reads::ruby.dir_cntrl2        76383                       # Number of read requests responded to by this memory
system.mem_ctrls2.num_reads::total              76383                       # Number of read requests responded to by this memory
system.mem_ctrls2.num_writes::ruby.dir_cntrl2        60737                       # Number of write requests responded to by this memory
system.mem_ctrls2.num_writes::total             60737                       # Number of write requests responded to by this memory
system.mem_ctrls2.bw_read::ruby.dir_cntrl2     80443917                       # Total read bandwidth from this memory (bytes/s)
system.mem_ctrls2.bw_read::total             80443917                       # Total read bandwidth from this memory (bytes/s)
system.mem_ctrls2.bw_write::ruby.dir_cntrl2     63966094                       # Write bandwidth from this memory (bytes/s)
system.mem_ctrls2.bw_write::total            63966094                       # Write bandwidth from this memory (bytes/s)
system.mem_ctrls2.bw_total::ruby.dir_cntrl2    144410011                       # Total bandwidth to/from this memory (bytes/s)
system.mem_ctrls2.bw_total::total           144410011                       # Total bandwidth to/from this memory (bytes/s)
system.mem_ctrls2.readReqs                      76383                       # Number of read requests accepted
system.mem_ctrls2.writeReqs                     60737                       # Number of write requests accepted
system.mem_ctrls2.readBursts                    76383                       # Number of DRAM read bursts, including those serviced by the write queue
system.mem_ctrls2.writeBursts                   60737                       # Number of DRAM write bursts, including those merged in the write queue
system.mem_ctrls2.bytesReadDRAM               4887488                       # Total number of bytes read from DRAM
system.mem_ctrls2.bytesReadWrQ                   1024                       # Total number of bytes read from write queue
system.mem_ctrls2.bytesWritten                3887168                       # Total number of bytes written to DRAM
system.mem_ctrls2.bytesReadSys                4888512                       # Total read bytes from the system interface side
system.mem_ctrls2.bytesWrittenSys             3887168                       # Total written bytes from the system interface side
system.mem_ctrls2.servicedByWrQ                    16                       # Number of DRAM read bursts serviced by the write queue
system.mem_ctrls2.mergedWrBursts                    0                       # Number of DRAM write bursts merged with an existing one
system.mem_ctrls2.neitherReadNorWriteReqs            0                       # Number of requests that are neither read nor write
system.mem_ctrls2.perBankRdBursts::0             4321                       # Per bank write bursts
system.mem_ctrls2.perBankRdBursts::1             4758                       # Per bank write bursts
system.mem_ctrls2.perBankRdBursts::2             4498                       # Per bank write bursts
system.mem_ctrls2.perBankRdBursts::3             4903                       # Per bank write bursts
system.mem_ctrls2.perBankRdBursts::4             4780                       # Per bank write bursts
system.mem_ctrls2.perBankRdBursts::5             5304                       # Per bank write bursts
system.mem_ctrls2.perBankRdBursts::6             4866                       # Per bank write bursts
system.mem_ctrls2.perBankRdBursts::7             5165                       # Per bank write bursts
system.mem_ctrls2.perBankRdBursts::8             4936                       # Per bank write bursts
system.mem_ctrls2.perBankRdBursts::9             5106                       # Per bank write bursts
system.mem_ctrls2.perBankRdBursts::10            4537                       # Per bank write bursts
system.mem_ctrls2.perBankRdBursts::11            4770                       # Per bank write bursts
system.mem_ctrls2.perBankRdBursts::12            4491                       # Per bank write bursts
system.mem_ctrls2.perBankRdBursts::13            4546                       # Per bank write bursts
system.mem_ctrls2.perBankRdBursts::14            4627                       # Per bank write bursts
system.mem_ctrls2.perBankRdBursts::15            4759                       # Per bank write bursts
system.mem_ctrls2.perBankWrBursts::0             3557                       # Per bank write bursts
system.mem_ctrls2.perBankWrBursts::1             3504                       # Per bank write bursts
system.mem_ctrls2.perBankWrBursts::2             3591                       # Per bank write bursts
system.mem_ctrls2.perBankWrBursts::3             3732                       # Per bank write bursts
system.mem_ctrls2.perBankWrBursts::4             3787                       # Per bank write bursts
system.mem_ctrls2.perBankWrBursts::5             4120                       # Per bank write bursts
system.mem_ctrls2.perBankWrBursts::6             3840                       # Per bank write bursts
system.mem_ctrls2.perBankWrBursts::7             4111                       # Per bank write bursts
system.mem_ctrls2.perBankWrBursts::8             3964                       # Per bank write bursts
system.mem_ctrls2.perBankWrBursts::9             4047                       # Per bank write bursts
system.mem_ctrls2.perBankWrBursts::10            3623                       # Per bank write bursts
system.mem_ctrls2.perBankWrBursts::11            3579                       # Per bank write bursts
system.mem_ctrls2.perBankWrBursts::12            3718                       # Per bank write bursts
system.mem_ctrls2.perBankWrBursts::13            3827                       # Per bank write bursts
system.mem_ctrls2.perBankWrBursts::14            3896                       # Per bank write bursts
system.mem_ctrls2.perBankWrBursts::15            3841                       # Per bank write bursts
system.mem_ctrls2.numRdRetry                        0                       # Number of times read queue was full causing retry
system.mem_ctrls2.numWrRetry                        0                       # Number of times write queue was full causing retry
system.mem_ctrls2.totGap                  60768964500                       # Total gap between requests
system.mem_ctrls2.readPktSize::0                    0                       # Read request sizes (log2)
system.mem_ctrls2.readPktSize::1                    0                       # Read request sizes (log2)
system.mem_ctrls2.readPktSize::2                    0                       # Read request sizes (log2)
system.mem_ctrls2.readPktSize::3                    0                       # Read request sizes (log2)
system.mem_ctrls2.readPktSize::4                    0                       # Read request sizes (log2)
system.mem_ctrls2.readPktSize::5                    0                       # Read request sizes (log2)
system.mem_ctrls2.readPktSize::6                76383                       # Read request sizes (log2)
system.mem_ctrls2.writePktSize::0                   0                       # Write request sizes (log2)
system.mem_ctrls2.writePktSize::1                   0                       # Write request sizes (log2)
system.mem_ctrls2.writePktSize::2                   0                       # Write request sizes (log2)
system.mem_ctrls2.writePktSize::3                   0                       # Write request sizes (log2)
system.mem_ctrls2.writePktSize::4                   0                       # Write request sizes (log2)
system.mem_ctrls2.writePktSize::5                   0                       # Write request sizes (log2)
system.mem_ctrls2.writePktSize::6               60737                       # Write request sizes (log2)
system.mem_ctrls2.rdQLenPdf::0                  75068                       # What read queue length does an incoming req see
system.mem_ctrls2.rdQLenPdf::1                   1130                       # What read queue length does an incoming req see
system.mem_ctrls2.rdQLenPdf::2                    128                       # What read queue length does an incoming req see
system.mem_ctrls2.rdQLenPdf::3                     27                       # What read queue length does an incoming req see
system.mem_ctrls2.rdQLenPdf::4                      9                       # What read queue length does an incoming req see
system.mem_ctrls2.rdQLenPdf::5                      5                       # What read queue length does an incoming req see
system.mem_ctrls2.rdQLenPdf::6                      0                       # What read queue length does an incoming req see
system.mem_ctrls2.rdQLenPdf::7                      0                       # What read queue length does an incoming req see
system.mem_ctrls2.rdQLenPdf::8                      0                       # What read queue length does an incoming req see
system.mem_ctrls2.rdQLenPdf::9                      0                       # What read queue length does an incoming req see
system.mem_ctrls2.rdQLenPdf::10                     0                       # What read queue length does an incoming req see
system.mem_ctrls2.rdQLenPdf::11                     0                       # What read queue length does an incoming req see
system.mem_ctrls2.rdQLenPdf::12                     0                       # What read queue length does an incoming req see
system.mem_ctrls2.rdQLenPdf::13                     0                       # What read queue length does an incoming req see
system.mem_ctrls2.rdQLenPdf::14                     0                       # What read queue length does an incoming req see
system.mem_ctrls2.rdQLenPdf::15                     0                       # What read queue length does an incoming req see
system.mem_ctrls2.rdQLenPdf::16                     0                       # What read queue length does an incoming req see
system.mem_ctrls2.rdQLenPdf::17                     0                       # What read queue length does an incoming req see
system.mem_ctrls2.rdQLenPdf::18                     0                       # What read queue length does an incoming req see
system.mem_ctrls2.rdQLenPdf::19                     0                       # What read queue length does an incoming req see
system.mem_ctrls2.rdQLenPdf::20                     0                       # What read queue length does an incoming req see
system.mem_ctrls2.rdQLenPdf::21                     0                       # What read queue length does an incoming req see
system.mem_ctrls2.rdQLenPdf::22                     0                       # What read queue length does an incoming req see
system.mem_ctrls2.rdQLenPdf::23                     0                       # What read queue length does an incoming req see
system.mem_ctrls2.rdQLenPdf::24                     0                       # What read queue length does an incoming req see
system.mem_ctrls2.rdQLenPdf::25                     0                       # What read queue length does an incoming req see
system.mem_ctrls2.rdQLenPdf::26                     0                       # What read queue length does an incoming req see
system.mem_ctrls2.rdQLenPdf::27                     0                       # What read queue length does an incoming req see
system.mem_ctrls2.rdQLenPdf::28                     0                       # What read queue length does an incoming req see
system.mem_ctrls2.rdQLenPdf::29                     0                       # What read queue length does an incoming req see
system.mem_ctrls2.rdQLenPdf::30                     0                       # What read queue length does an incoming req see
system.mem_ctrls2.rdQLenPdf::31                     0                       # What read queue length does an incoming req see
system.mem_ctrls2.wrQLenPdf::0                  12088                       # What write queue length does an incoming req see
system.mem_ctrls2.wrQLenPdf::1                  12218                       # What write queue length does an incoming req see
system.mem_ctrls2.wrQLenPdf::2                  12154                       # What write queue length does an incoming req see
system.mem_ctrls2.wrQLenPdf::3                  12129                       # What write queue length does an incoming req see
system.mem_ctrls2.wrQLenPdf::4                  12092                       # What write queue length does an incoming req see
system.mem_ctrls2.wrQLenPdf::5                     49                       # What write queue length does an incoming req see
system.mem_ctrls2.wrQLenPdf::6                      6                       # What write queue length does an incoming req see
system.mem_ctrls2.wrQLenPdf::7                      1                       # What write queue length does an incoming req see
system.mem_ctrls2.bytesPerActivate::samples        40218                       # Bytes accessed per row activation
system.mem_ctrls2.bytesPerActivate::mean   218.145507                       # Bytes accessed per row activation
system.mem_ctrls2.bytesPerActivate::gmean   159.122666                       # Bytes accessed per row activation
system.mem_ctrls2.bytesPerActivate::stdev   191.936058                       # Bytes accessed per row activation
system.mem_ctrls2.bytesPerActivate::0-127        13523     33.62%     33.62% # Bytes accessed per row activation
system.mem_ctrls2.bytesPerActivate::128-255        11064     27.51%     61.13% # Bytes accessed per row activation
system.mem_ctrls2.bytesPerActivate::256-383        10750     26.73%     87.86% # Bytes accessed per row activation
system.mem_ctrls2.bytesPerActivate::384-511         1721      4.28%     92.14% # Bytes accessed per row activation
system.mem_ctrls2.bytesPerActivate::512-639         1200      2.98%     95.13% # Bytes accessed per row activation
system.mem_ctrls2.bytesPerActivate::640-767          567      1.41%     96.54% # Bytes accessed per row activation
system.mem_ctrls2.bytesPerActivate::768-895          403      1.00%     97.54% # Bytes accessed per row activation
system.mem_ctrls2.bytesPerActivate::896-1023          377      0.94%     98.48% # Bytes accessed per row activation
system.mem_ctrls2.bytesPerActivate::1024-1151          613      1.52%    100.00% # Bytes accessed per row activation
system.mem_ctrls2.bytesPerActivate::total        40218                       # Bytes accessed per row activation
system.mem_ctrls2.rdPerTurnAround::samples        12088                       # Reads before turning the bus around for writes
system.mem_ctrls2.rdPerTurnAround::mean      6.317505                       # Reads before turning the bus around for writes
system.mem_ctrls2.rdPerTurnAround::stdev    29.049863                       # Reads before turning the bus around for writes
system.mem_ctrls2.rdPerTurnAround::0-127        12083     99.96%     99.96% # Reads before turning the bus around for writes
system.mem_ctrls2.rdPerTurnAround::128-255            3      0.02%     99.98% # Reads before turning the bus around for writes
system.mem_ctrls2.rdPerTurnAround::1152-1279            1      0.01%     99.99% # Reads before turning the bus around for writes
system.mem_ctrls2.rdPerTurnAround::2816-2943            1      0.01%    100.00% # Reads before turning the bus around for writes
system.mem_ctrls2.rdPerTurnAround::total        12088                       # Reads before turning the bus around for writes
system.mem_ctrls2.wrPerTurnAround::samples        12088                       # Writes before turning the bus around for reads
system.mem_ctrls2.wrPerTurnAround::mean      5.024570                       # Writes before turning the bus around for reads
system.mem_ctrls2.wrPerTurnAround::gmean     5.021899                       # Writes before turning the bus around for reads
system.mem_ctrls2.wrPerTurnAround::stdev     0.180936                       # Writes before turning the bus around for reads
system.mem_ctrls2.wrPerTurnAround::4-5          11826     97.83%     97.83% # Writes before turning the bus around for reads
system.mem_ctrls2.wrPerTurnAround::6-7            254      2.10%     99.93% # Writes before turning the bus around for reads
system.mem_ctrls2.wrPerTurnAround::8-9              6      0.05%     99.98% # Writes before turning the bus around for reads
system.mem_ctrls2.wrPerTurnAround::10-11            2      0.02%    100.00% # Writes before turning the bus around for reads
system.mem_ctrls2.wrPerTurnAround::total        12088                       # Writes before turning the bus around for reads
system.mem_ctrls2.totQLat                   734672250                       # Total ticks spent queuing
system.mem_ctrls2.totMemAccLat             2166553500                       # Total ticks spent from burst creation until serviced by the DRAM
system.mem_ctrls2.totBusLat                 381835000                       # Total ticks spent in databus transfers
system.mem_ctrls2.avgQLat                     9620.28                       # Average queueing delay per DRAM burst
system.mem_ctrls2.avgBusLat                   5000.00                       # Average bus latency per DRAM burst
system.mem_ctrls2.avgMemAccLat               28370.28                       # Average memory access latency per DRAM burst
system.mem_ctrls2.avgRdBW                       80.43                       # Average DRAM read bandwidth in MiByte/s
system.mem_ctrls2.avgWrBW                       63.97                       # Average achieved write bandwidth in MiByte/s
system.mem_ctrls2.avgRdBWSys                    80.44                       # Average system read bandwidth in MiByte/s
system.mem_ctrls2.avgWrBWSys                    63.97                       # Average system write bandwidth in MiByte/s
system.mem_ctrls2.peakBW                     12800.00                       # Theoretical peak bandwidth in MiByte/s
system.mem_ctrls2.busUtil                        1.13                       # Data bus utilization in percentage
system.mem_ctrls2.busUtilRead                    0.63                       # Data bus utilization in percentage for reads
system.mem_ctrls2.busUtilWrite                   0.50                       # Data bus utilization in percentage for writes
system.mem_ctrls2.avgRdQLen                      1.01                       # Average read queue length when enqueuing
system.mem_ctrls2.avgWrQLen                      2.94                       # Average write queue length when enqueuing
system.mem_ctrls2.readRowHits                   56374                       # Number of row buffer hits during reads
system.mem_ctrls2.writeRowHits                  40502                       # Number of row buffer hits during writes
system.mem_ctrls2.readRowHitRate                73.82                       # Row buffer hit rate for reads
system.mem_ctrls2.writeRowHitRate               66.68                       # Row buffer hit rate for writes
system.mem_ctrls2.avgGap                    443180.90                       # Average gap between requests
system.mem_ctrls2.pageHitRate                   70.66                       # Row buffer hit rate, read and write combined
system.mem_ctrls2.memoryStateTime::IDLE   12552651250                       # Time in different power states
system.mem_ctrls2.memoryStateTime::REF     2029040000                       # Time in different power states
system.mem_ctrls2.memoryStateTime::PRE_PDN            0                       # Time in different power states
system.mem_ctrls2.memoryStateTime::ACT    46182653250                       # Time in different power states
system.mem_ctrls2.memoryStateTime::ACT_PDN            0                       # Time in different power states
system.mem_ctrls2.actEnergy::0              155169000                       # Energy for activate commands per rank (pJ)
system.mem_ctrls2.actEnergy::1              148833720                       # Energy for activate commands per rank (pJ)
system.mem_ctrls2.preEnergy::0               84665625                       # Energy for precharge commands per rank (pJ)
system.mem_ctrls2.preEnergy::1               81208875                       # Energy for precharge commands per rank (pJ)
system.mem_ctrls2.readEnergy::0             300963000                       # Energy for read commands per rank (pJ)
system.mem_ctrls2.readEnergy::1             294567000                       # Energy for read commands per rank (pJ)
system.mem_ctrls2.writeEnergy::0            195961680                       # Energy for write commands per rank (pJ)
system.mem_ctrls2.writeEnergy::1            197549280                       # Energy for write commands per rank (pJ)
system.mem_ctrls2.refreshEnergy::0         3968802240                       # Energy for refresh commands per rank (pJ)
system.mem_ctrls2.refreshEnergy::1         3968802240                       # Energy for refresh commands per rank (pJ)
system.mem_ctrls2.actBackEnergy::0        24952290930                       # Energy for active background per rank (pJ)
system.mem_ctrls2.actBackEnergy::1        24517568745                       # Energy for active background per rank (pJ)
system.mem_ctrls2.preBackEnergy::0        14570518500                       # Energy for precharge background per rank (pJ)
system.mem_ctrls2.preBackEnergy::1        14951853750                       # Energy for precharge background per rank (pJ)
system.mem_ctrls2.totalEnergy::0          44228370975                       # Total energy per rank (pJ)
system.mem_ctrls2.totalEnergy::1          44160383610                       # Total energy per rank (pJ)
system.mem_ctrls2.averagePower::0          727.869432                       # Core power per rank (mW)
system.mem_ctrls2.averagePower::1          726.750559                       # Core power per rank (mW)
system.mem_ctrls3.bytes_read::ruby.dir_cntrl3      4863296                       # Number of bytes read from this memory
system.mem_ctrls3.bytes_read::total           4863296                       # Number of bytes read from this memory
system.mem_ctrls3.bytes_written::ruby.dir_cntrl3      3878784                       # Number of bytes written to this memory
system.mem_ctrls3.bytes_written::total        3878784                       # Number of bytes written to this memory
system.mem_ctrls3.num_reads::ruby.dir_cntrl3        75989                       # Number of read requests responded to by this memory
system.mem_ctrls3.num_reads::total              75989                       # Number of read requests responded to by this memory
system.mem_ctrls3.num_writes::ruby.dir_cntrl3        60606                       # Number of write requests responded to by this memory
system.mem_ctrls3.num_writes::total             60606                       # Number of write requests responded to by this memory
system.mem_ctrls3.bw_read::ruby.dir_cntrl3     80028970                       # Total read bandwidth from this memory (bytes/s)
system.mem_ctrls3.bw_read::total             80028970                       # Total read bandwidth from this memory (bytes/s)
system.mem_ctrls3.bw_write::ruby.dir_cntrl3     63828130                       # Write bandwidth from this memory (bytes/s)
system.mem_ctrls3.bw_write::total            63828130                       # Write bandwidth from this memory (bytes/s)
system.mem_ctrls3.bw_total::ruby.dir_cntrl3    143857100                       # Total bandwidth to/from this memory (bytes/s)
system.mem_ctrls3.bw_total::total           143857100                       # Total bandwidth to/from this memory (bytes/s)
system.mem_ctrls3.readReqs                      75990                       # Number of read requests accepted
system.mem_ctrls3.writeReqs                     60606                       # Number of write requests accepted
system.mem_ctrls3.readBursts                    75990                       # Number of DRAM read bursts, including those serviced by the write queue
system.mem_ctrls3.writeBursts                   60606                       # Number of DRAM write bursts, including those merged in the write queue
system.mem_ctrls3.bytesReadDRAM               4862720                       # Total number of bytes read from DRAM
system.mem_ctrls3.bytesReadWrQ                    640                       # Total number of bytes read from write queue
system.mem_ctrls3.bytesWritten                3878784                       # Total number of bytes written to DRAM
system.mem_ctrls3.bytesReadSys                4863360                       # Total read bytes from the system interface side
system.mem_ctrls3.bytesWrittenSys             3878784                       # Total written bytes from the system interface side
system.mem_ctrls3.servicedByWrQ                    10                       # Number of DRAM read bursts serviced by the write queue
system.mem_ctrls3.mergedWrBursts                    0                       # Number of DRAM write bursts merged with an existing one
system.mem_ctrls3.neitherReadNorWriteReqs            0                       # Number of requests that are neither read nor write
system.mem_ctrls3.perBankRdBursts::0             4296                       # Per bank write bursts
system.mem_ctrls3.perBankRdBursts::1             4731                       # Per bank write bursts
system.mem_ctrls3.perBankRdBursts::2             4440                       # Per bank write bursts
system.mem_ctrls3.perBankRdBursts::3             4863                       # Per bank write bursts
system.mem_ctrls3.perBankRdBursts::4             4728                       # Per bank write bursts
system.mem_ctrls3.perBankRdBursts::5             5252                       # Per bank write bursts
system.mem_ctrls3.perBankRdBursts::6             4871                       # Per bank write bursts
system.mem_ctrls3.perBankRdBursts::7             5145                       # Per bank write bursts
system.mem_ctrls3.perBankRdBursts::8             4931                       # Per bank write bursts
system.mem_ctrls3.perBankRdBursts::9             5074                       # Per bank write bursts
system.mem_ctrls3.perBankRdBursts::10            4538                       # Per bank write bursts
system.mem_ctrls3.perBankRdBursts::11            4732                       # Per bank write bursts
system.mem_ctrls3.perBankRdBursts::12            4474                       # Per bank write bursts
system.mem_ctrls3.perBankRdBursts::13            4526                       # Per bank write bursts
system.mem_ctrls3.perBankRdBursts::14            4648                       # Per bank write bursts
system.mem_ctrls3.perBankRdBursts::15            4731                       # Per bank write bursts
system.mem_ctrls3.perBankWrBursts::0             3553                       # Per bank write bursts
system.mem_ctrls3.perBankWrBursts::1             3497                       # Per bank write bursts
system.mem_ctrls3.perBankWrBursts::2             3575                       # Per bank write bursts
system.mem_ctrls3.perBankWrBursts::3             3718                       # Per bank write bursts
system.mem_ctrls3.perBankWrBursts::4             3778                       # Per bank write bursts
system.mem_ctrls3.perBankWrBursts::5             4105                       # Per bank write bursts
system.mem_ctrls3.perBankWrBursts::6             3829                       # Per bank write bursts
system.mem_ctrls3.perBankWrBursts::7             4092                       # Per bank write bursts
system.mem_ctrls3.perBankWrBursts::8             3969                       # Per bank write bursts
system.mem_ctrls3.perBankWrBursts::9             4035                       # Per bank write bursts
system.mem_ctrls3.perBankWrBursts::10            3613                       # Per bank write bursts
system.mem_ctrls3.perBankWrBursts::11            3583                       # Per bank write bursts
system.mem_ctrls3.perBankWrBursts::12            3709                       # Per bank write bursts
system.mem_ctrls3.perBankWrBursts::13            3827                       # Per bank write bursts
system.mem_ctrls3.perBankWrBursts::14            3896                       # Per bank write bursts
system.mem_ctrls3.perBankWrBursts::15            3827                       # Per bank write bursts
system.mem_ctrls3.numRdRetry                        0                       # Number of times read queue was full causing retry
system.mem_ctrls3.numWrRetry                        1                       # Number of times write queue was full causing retry
system.mem_ctrls3.totGap                  60768451000                       # Total gap between requests
system.mem_ctrls3.readPktSize::0                    0                       # Read request sizes (log2)
system.mem_ctrls3.readPktSize::1                    0                       # Read request sizes (log2)
system.mem_ctrls3.readPktSize::2                    0                       # Read request sizes (log2)
system.mem_ctrls3.readPktSize::3                    0                       # Read request sizes (log2)
system.mem_ctrls3.readPktSize::4                    0                       # Read request sizes (log2)
system.mem_ctrls3.readPktSize::5                    0                       # Read request sizes (log2)
system.mem_ctrls3.readPktSize::6                75990                       # Read request sizes (log2)
system.mem_ctrls3.writePktSize::0                   0                       # Write request sizes (log2)
system.mem_ctrls3.writePktSize::1                   0                       # Write request sizes (log2)
system.mem_ctrls3.writePktSize::2                   0                       # Write request sizes (log2)
system.mem_ctrls3.writePktSize::3                   0                       # Write request sizes (log2)
system.mem_ctrls3.writePktSize::4                   0                       # Write request sizes (log2)
system.mem_ctrls3.writePktSize::5                   0                       # Write request sizes (log2)
system.mem_ctrls3.writePktSize::6               60606                       # Write request sizes (log2)
system.mem_ctrls3.rdQLenPdf::0                  74642                       # What read queue length does an incoming req see
system.mem_ctrls3.rdQLenPdf::1                   1179                       # What read queue length does an incoming req see
system.mem_ctrls3.rdQLenPdf::2                    121                       # What read queue length does an incoming req see
system.mem_ctrls3.rdQLenPdf::3                     27                       # What read queue length does an incoming req see
system.mem_ctrls3.rdQLenPdf::4                      9                       # What read queue length does an incoming req see
system.mem_ctrls3.rdQLenPdf::5                      2                       # What read queue length does an incoming req see
system.mem_ctrls3.rdQLenPdf::6                      0                       # What read queue length does an incoming req see
system.mem_ctrls3.rdQLenPdf::7                      0                       # What read queue length does an incoming req see
system.mem_ctrls3.rdQLenPdf::8                      0                       # What read queue length does an incoming req see
system.mem_ctrls3.rdQLenPdf::9                      0                       # What read queue length does an incoming req see
system.mem_ctrls3.rdQLenPdf::10                     0                       # What read queue length does an incoming req see
system.mem_ctrls3.rdQLenPdf::11                     0                       # What read queue length does an incoming req see
system.mem_ctrls3.rdQLenPdf::12                     0                       # What read queue length does an incoming req see
system.mem_ctrls3.rdQLenPdf::13                     0                       # What read queue length does an incoming req see
system.mem_ctrls3.rdQLenPdf::14                     0                       # What read queue length does an incoming req see
system.mem_ctrls3.rdQLenPdf::15                     0                       # What read queue length does an incoming req see
system.mem_ctrls3.rdQLenPdf::16                     0                       # What read queue length does an incoming req see
system.mem_ctrls3.rdQLenPdf::17                     0                       # What read queue length does an incoming req see
system.mem_ctrls3.rdQLenPdf::18                     0                       # What read queue length does an incoming req see
system.mem_ctrls3.rdQLenPdf::19                     0                       # What read queue length does an incoming req see
system.mem_ctrls3.rdQLenPdf::20                     0                       # What read queue length does an incoming req see
system.mem_ctrls3.rdQLenPdf::21                     0                       # What read queue length does an incoming req see
system.mem_ctrls3.rdQLenPdf::22                     0                       # What read queue length does an incoming req see
system.mem_ctrls3.rdQLenPdf::23                     0                       # What read queue length does an incoming req see
system.mem_ctrls3.rdQLenPdf::24                     0                       # What read queue length does an incoming req see
system.mem_ctrls3.rdQLenPdf::25                     0                       # What read queue length does an incoming req see
[...]
system.ruby.L2Cache_Controller.I_I.Ack_all::total        12705                      
system.ruby.L2Cache_Controller.S_I.Ack   |           0      0.00%      0.00% |           0      0.00%      0.00% |           1      3.33%      3.33% |           1      3.33%      6.67% |           0      0.00%      6.67% |           0      0.00%      6.67% |           2      6.67%     13.33% |           3     10.00%     23.33% |           1      3.33%     26.67% |           2      6.67%     33.33% |           4     13.33%     46.67% |           1      3.33%     50.00% |           2      6.67%     56.67% |           2      6.67%     63.33% |           2      6.67%     70.00% |           2      6.67%     76.67% |           2      6.67%     83.33% |           1      3.33%     86.67% |           1      3.33%     90.00% |           1      3.33%     93.33% |           1      3.33%     96.67% |           0      0.00%     96.67% |           0      0.00%     96.67% |           0      0.00%     96.67% |           0      0.00%     96.67% |           0      0.00%     96.67% |           0      0.00%     96.67% |           0      0.00%     96.67% |           0      0.00%     96.67% |           1      3.33%    100.00% |           0      0.00%    100.00% |           0      0.00%    100.00%
system.ruby.L2Cache_Controller.S_I.Ack::total           30                      
system.ruby.L2Cache_Controller.S_I.Ack_all |           1      2.33%      2.33% |           2      4.65%      6.98% |           3      6.98%     13.95% |           1      2.33%     16.28% |           0      0.00%     16.28% |           3      6.98%     23.26% |           3      6.98%     30.23% |           3      6.98%     37.21% |           1      2.33%     39.53% |           3      6.98%     46.51% |           4      9.30%     55.81% |           1      2.33%     58.14% |           2      4.65%     62.79% |           2      4.65%     67.44% |           3      6.98%     74.42% |           2      4.65%     79.07% |           2      4.65%     83.72% |           1      2.33%     86.05% |           1      2.33%     88.37% |           1      2.33%     90.70% |           1      2.33%     93.02% |           1      2.33%     95.35% |           0      0.00%     95.35% |           0      0.00%     95.35% |           0      0.00%     95.35% |           0      0.00%     95.35% |           0      0.00%     95.35% |           0      0.00%     95.35% |           1      2.33%     97.67% |           1      2.33%    100.00% |           0      0.00%    100.00% |           0      0.00%    100.00%
system.ruby.L2Cache_Controller.S_I.Ack_all::total           43                      
system.ruby.L2Cache_Controller.ISS.Mem_Data |        5293      4.14%      4.14% |        4030      3.15%      7.29% |        4083      3.19%     10.48% |        3980      3.11%     13.59% |        3987      3.12%     16.70% |        3974      3.11%     19.81% |        3977      3.11%     22.92% |        3972      3.10%     26.02% |        3975      3.11%     29.13% |        4009      3.13%     32.26% |        4026      3.15%     35.41% |        3932      3.07%     38.48% |        3951      3.09%     41.57% |        3963      3.10%     44.67% |        3968      3.10%     47.77% |        3926      3.07%     50.84% |        3956      3.09%     53.93% |        3940      3.08%     57.01% |        3944      3.08%     60.09% |        3948      3.09%     63.18% |        3944      3.08%     66.26% |        3966      3.10%     69.36% |        3967      3.10%     72.46% |        3907      3.05%     75.51% |        3930      3.07%     78.59% |        3948      3.09%     81.67% |        3915      3.06%     84.73% |        3893      3.04%     87.77% |        3923      3.07%     90.84% |        3891      3.04%     93.88% |        3886      3.04%     96.92% |        3942      3.08%    100.00%
system.ruby.L2Cache_Controller.ISS.Mem_Data::total       127946                      
system.ruby.L2Cache_Controller.IS.Mem_Data |         416      3.26%      3.26% |         378      2.96%      6.22% |         381      2.99%      9.21% |         375      2.94%     12.15% |         386      3.03%     15.17% |         388      3.04%     18.21% |         386      3.03%     21.24% |         390      3.06%     24.29% |         396      3.10%     27.40% |         412      3.23%     30.63% |         412      3.23%     33.86% |         402      3.15%     37.01% |         426      3.34%     40.34% |         429      3.36%     43.71% |         425      3.33%     47.04% |         418      3.28%     50.31% |         421      3.30%     53.61% |         405      3.17%     56.79% |         397      3.11%     59.90% |         372      2.92%     62.81% |         363      2.84%     65.66% |         398      3.12%     68.78% |         385      3.02%     71.79% |         384      3.01%     74.80% |         411      3.22%     78.03% |         419      3.28%     81.31% |         428      3.35%     84.66% |         395      3.10%     87.76% |         397      3.11%     90.87% |         389      3.05%     93.92% |         399      3.13%     97.05% |         377      2.95%    100.00%
system.ruby.L2Cache_Controller.IS.Mem_Data::total        12760                      
system.ruby.L2Cache_Controller.IM.Mem_Data |        5276      3.18%      3.18% |        5173      3.12%      6.30% |        5177      3.12%      9.43% |        5178      3.12%     12.55% |        5164      3.12%     15.67% |        5170      3.12%     18.79% |        5158      3.11%     21.90% |        5155      3.11%     25.01% |        5176      3.12%     28.13% |        5182      3.13%     31.26% |        5168      3.12%     34.38% |        5194      3.13%     37.51% |        5188      3.13%     40.64% |        5186      3.13%     43.77% |        5176      3.12%     46.89% |        5164      3.12%     50.01% |        5178      3.12%     53.13% |        5182      3.13%     56.26% |        5181      3.13%     59.39% |        5182      3.13%     62.51% |        5182      3.13%     65.64% |        5199      3.14%     68.78% |        5171      3.12%     71.90% |        5167      3.12%     75.01% |        5175      3.12%     78.14% |        5181      3.13%     81.26% |        5186      3.13%     84.39% |        5177      3.12%     87.52% |        5171      3.12%     90.64% |        5174      3.12%     93.76% |        5187      3.13%     96.89% |        5159      3.11%    100.00%
system.ruby.L2Cache_Controller.IM.Mem_Data::total       165737                      
system.ruby.L2Cache_Controller.SS_MB.Exclusive_Unblock |           2      4.44%      4.44% |           3      6.67%     11.11% |           4      8.89%     20.00% |           3      6.67%     26.67% |           0      0.00%     26.67% |           2      4.44%     31.11% |           0      0.00%     31.11% |           0      0.00%     31.11% |           0      0.00%     31.11% |           2      4.44%     35.56% |           0      0.00%     35.56% |           0      0.00%     35.56% |           3      6.67%     42.22% |           0      0.00%     42.22% |           3      6.67%     48.89% |           0      0.00%     48.89% |           1      2.22%     51.11% |           1      2.22%     53.33% |          11     24.44%     77.78% |           3      6.67%     84.44% |           1      2.22%     86.67% |           0      0.00%     86.67% |           0      0.00%     86.67% |           0      0.00%     86.67% |           1      2.22%     88.89% |           0      0.00%     88.89% |           1      2.22%     91.11% |           0      0.00%     91.11% |           3      6.67%     97.78% |           1      2.22%    100.00% |           0      0.00%    100.00% |           0      0.00%    100.00%
system.ruby.L2Cache_Controller.SS_MB.Exclusive_Unblock::total           45                      
system.ruby.L2Cache_Controller.MT_MB.Exclusive_Unblock |       45924      7.99%      7.99% |       17992      3.13%     11.12% |       16682      2.90%     14.03% |       17654      3.07%     17.10% |       16872      2.94%     20.03% |       16512      2.87%     22.91% |       16179      2.82%     25.72% |       16157      2.81%     28.54% |       16378      2.85%     31.39% |       16940      2.95%     34.33% |       18617      3.24%     37.57% |       18936      3.30%     40.87% |       17042      2.97%     43.84% |       16689      2.90%     46.74% |       15855      2.76%     49.50% |       16243      2.83%     52.33% |       17185      2.99%     55.32% |       16686      2.90%     58.22% |       17007      2.96%     61.18% |       17037      2.96%     64.15% |       16689      2.90%     67.05% |       19132      3.33%     70.38% |       16592      2.89%     73.27% |       16274      2.83%     76.10% |       16735      2.91%     79.01% |       17118      2.98%     81.99% |       16665      2.90%     84.89% |       16622      2.89%     87.78% |       16514      2.87%     90.66% |       16311      2.84%     93.50% |       17437      3.03%     96.53% |       19939      3.47%    100.00%
system.ruby.L2Cache_Controller.MT_MB.Exclusive_Unblock::total       574615                      
system.ruby.L2Cache_Controller.MT_IIB.WB_Data |           0      0.00%      0.00% |           0      0.00%      0.00% |           1      3.70%      3.70% |           1      3.70%      7.41% |           0      0.00%      7.41% |           0      0.00%      7.41% |           2      7.41%     14.81% |           3     11.11%     25.93% |           1      3.70%     29.63% |           2      7.41%     37.04% |           4     14.81%     51.85% |           1      3.70%     55.56% |           1      3.70%     59.26% |           2      7.41%     66.67% |           2      7.41%     74.07% |           2      7.41%     81.48% |           2      7.41%     88.89% |           0      0.00%     88.89% |           0      0.00%     88.89% |           1      3.70%     92.59% |           1      3.70%     96.30% |           0      0.00%     96.30% |           0      0.00%     96.30% |           0      0.00%     96.30% |           0      0.00%     96.30% |           0      0.00%     96.30% |           0      0.00%     96.30% |           0      0.00%     96.30% |           0      0.00%     96.30% |           1      3.70%    100.00% |           0      0.00%    100.00% |           0      0.00%    100.00%
system.ruby.L2Cache_Controller.MT_IIB.WB_Data::total           27                      
system.ruby.L2Cache_Controller.MT_IIB.Unblock |           0      0.00%      0.00% |           0      0.00%      0.00% |           0      0.00%      0.00% |           0      0.00%      0.00% |           0      0.00%      0.00% |           0      0.00%      0.00% |           0      0.00%      0.00% |           0      0.00%      0.00% |           0      0.00%      0.00% |           0      0.00%      0.00% |           0      0.00%      0.00% |           0      0.00%      0.00% |           1     33.33%     33.33% |           0      0.00%     33.33% |           0      0.00%     33.33% |           0      0.00%     33.33% |           0      0.00%     33.33% |           1     33.33%     66.67% |           1     33.33%    100.00% |           0      0.00%    100.00% |           0      0.00%    100.00% |           0      0.00%    100.00% |           0      0.00%    100.00% |           0      0.00%    100.00% |           0      0.00%    100.00% |           0      0.00%    100.00% |           0      0.00%    100.00% |           0      0.00%    100.00% |           0      0.00%    100.00% |           0      0.00%    100.00% |           0      0.00%    100.00% |           0      0.00%    100.00%
system.ruby.L2Cache_Controller.MT_IIB.Unblock::total            3                      
system.ruby.L2Cache_Controller.MT_IB.WB_Data |           0      0.00%      0.00% |           0      0.00%      0.00% |           0      0.00%      0.00% |           0      0.00%      0.00% |           0      0.00%      0.00% |           0      0.00%      0.00% |           0      0.00%      0.00% |           0      0.00%      0.00% |           0      0.00%      0.00% |           0      0.00%      0.00% |           0      0.00%      0.00% |           0      0.00%      0.00% |           1     33.33%     33.33% |           0      0.00%     33.33% |           0      0.00%     33.33% |           0      0.00%     33.33% |           0      0.00%     33.33% |           1     33.33%     66.67% |           1     33.33%    100.00% |           0      0.00%    100.00% |           0      0.00%    100.00% |           0      0.00%    100.00% |           0      0.00%    100.00% |           0      0.00%    100.00% |           0      0.00%    100.00% |           0      0.00%    100.00% |           0      0.00%    100.00% |           0      0.00%    100.00% |           0      0.00%    100.00% |           0      0.00%    100.00% |           0      0.00%    100.00% |           0      0.00%    100.00%
system.ruby.L2Cache_Controller.MT_IB.WB_Data::total            3                      
system.ruby.L2Cache_Controller.MT_SB.Unblock |           0      0.00%      0.00% |           0      0.00%      0.00% |           1      3.70%      3.70% |           1      3.70%      7.41% |           0      0.00%      7.41% |           0      0.00%      7.41% |           2      7.41%     14.81% |           3     11.11%     25.93% |           1      3.70%     29.63% |           2      7.41%     37.04% |           4     14.81%     51.85% |           1      3.70%     55.56% |           1      3.70%     59.26% |           2      7.41%     66.67% |           2      7.41%     74.07% |           2      7.41%     81.48% |           2      7.41%     88.89% |           0      0.00%     88.89% |           0      0.00%     88.89% |           1      3.70%     92.59% |           1      3.70%     96.30% |           0      0.00%     96.30% |           0      0.00%     96.30% |           0      0.00%     96.30% |           0      0.00%     96.30% |           0      0.00%     96.30% |           0      0.00%     96.30% |           0      0.00%     96.30% |           0      0.00%     96.30% |           1      3.70%    100.00% |           0      0.00%    100.00% |           0      0.00%    100.00%
system.ruby.L2Cache_Controller.MT_SB.Unblock::total           27                      
system.ruby.SimicsNetworkPortInterface_Controller.MessageSend |      249545     17.75%     17.75% |      702992     50.00%     67.75% |      453447     32.25%    100.00% |           0      0.00%    100.00% |           0      0.00%    100.00% |           0      0.00%    100.00% |           0      0.00%    100.00% |           0      0.00%    100.00% |           0      0.00%    100.00% |           0      0.00%    100.00% |           0      0.00%    100.00% |           0      0.00%    100.00% |           0      0.00%    100.00% |           0      0.00%    100.00% |           0      0.00%    100.00% |           0      0.00%    100.00% |           0      0.00%    100.00% |           0      0.00%    100.00% |           0      0.00%    100.00% |           0      0.00%    100.00% |           0      0.00%    100.00% |           0      0.00%    100.00% |           0      0.00%    100.00% |           0      0.00%    100.00% |           0      0.00%    100.00% |           0      0.00%    100.00% |           0      0.00%    100.00% |           0      0.00%    100.00% |           0      0.00%    100.00% |           0      0.00%    100.00% |           0      0.00%    100.00% |           0      0.00%    100.00%
system.ruby.SimicsNetworkPortInterface_Controller.MessageSend::total      1405984                      
system.ruby.SimicsNetworkPortInterface_Controller.MessageRecv |      249545     17.75%     17.75% |      702992     50.00%     67.75% |      453447     32.25%    100.00% |           0      0.00%    100.00% |           0      0.00%    100.00% |           0      0.00%    100.00% |           0      0.00%    100.00% |           0      0.00%    100.00% |           0      0.00%    100.00% |           0      0.00%    100.00% |           0      0.00%    100.00% |           0      0.00%    100.00% |           0      0.00%    100.00% |           0      0.00%    100.00% |           0      0.00%    100.00% |           0      0.00%    100.00% |           0      0.00%    100.00% |           0      0.00%    100.00% |           0      0.00%    100.00% |           0      0.00%    100.00% |           0      0.00%    100.00% |           0      0.00%    100.00% |           0      0.00%    100.00% |           0      0.00%    100.00% |           0      0.00%    100.00% |           0      0.00%    100.00% |           0      0.00%    100.00% |           0      0.00%    100.00% |           0      0.00%    100.00% |           0      0.00%    100.00% |           0      0.00%    100.00% |           0      0.00%    100.00%
system.ruby.SimicsNetworkPortInterface_Controller.MessageRecv::total      1405984                      
system.ruby.SimicsNetworkPortInterface_Controller.A.MessageSend |      249545     17.75%     17.75% |      702992     50.00%     67.75% |      453447     32.25%    100.00% |           0      0.00%    100.00% |           0      0.00%    100.00% |           0      0.00%    100.00% |           0      0.00%    100.00% |           0      0.00%    100.00% |           0      0.00%    100.00% |           0      0.00%    100.00% |           0      0.00%    100.00% |           0      0.00%    100.00% |           0      0.00%    100.00% |           0      0.00%    100.00% |           0      0.00%    100.00% |           0      0.00%    100.00% |           0      0.00%    100.00% |           0      0.00%    100.00% |           0      0.00%    100.00% |           0      0.00%    100.00% |           0      0.00%    100.00% |           0      0.00%    100.00% |           0      0.00%    100.00% |           0      0.00%    100.00% |           0      0.00%    100.00% |           0      0.00%    100.00% |           0      0.00%    100.00% |           0      0.00%    100.00% |           0      0.00%    100.00% |           0      0.00%    100.00% |           0      0.00%    100.00% |           0      0.00%    100.00%
system.ruby.SimicsNetworkPortInterface_Controller.A.MessageSend::total      1405984                      
system.ruby.SimicsNetworkPortInterface_Controller.A.MessageRecv |      249545     17.75%     17.75% |      702992     50.00%     67.75% |      453447     32.25%    100.00% |           0      0.00%    100.00% |           0      0.00%    100.00% |           0      0.00%    100.00% |           0      0.00%    100.00% |           0      0.00%    100.00% |           0      0.00%    100.00% |           0      0.00%    100.00% |           0      0.00%    100.00% |           0      0.00%    100.00% |           0      0.00%    100.00% |           0      0.00%    100.00% |           0      0.00%    100.00% |           0      0.00%    100.00% |           0      0.00%    100.00% |           0      0.00%    100.00% |           0      0.00%    100.00% |           0      0.00%    100.00% |           0      0.00%    100.00% |           0      0.00%    100.00% |           0      0.00%    100.00% |           0      0.00%    100.00% |           0      0.00%    100.00% |           0      0.00%    100.00% |           0      0.00%    100.00% |           0      0.00%    100.00% |           0      0.00%    100.00% |           0      0.00%    100.00% |           0      0.00%    100.00% |           0      0.00%    100.00%
system.ruby.SimicsNetworkPortInterface_Controller.A.MessageRecv::total      1405984                      
system.switch_cpus.kern.inst.arm                    0                       # number of arm instructions executed
system.switch_cpus.kern.inst.quiesce                0                       # number of quiesce instructions executed

---------- End Simulation Statistics   ----------
