
---------- Begin Simulation Statistics ----------
sim_seconds                                  0.119824                       # Number of seconds simulated
sim_ticks                                119823621500                       # Number of ticks simulated
final_tick                               5295991700000                       # Number of ticks from beginning of simulation (restored from checkpoints and never reset)
sim_freq                                 1000000000000                       # Frequency of simulated ticks
host_inst_rate                                  19636                       # Simulator instruction rate (inst/s)
host_op_rate                                    34754                       # Simulator op (including micro ops) rate (op/s)
host_tick_rate                               42920755                       # Simulator tick rate (ticks/s)
host_mem_usage                                6091788                       # Number of bytes of host memory used
host_seconds                                  2791.74                       # Real time elapsed on the host
sim_insts                                    54818608                       # Number of instructions simulated
sim_ops                                      97024425                       # Number of ops (including micro ops) simulated
system.voltage_domain.voltage                       1                       # Voltage in Volts
system.clk_domain.clock                           500                       # Clock period in ticks
system.mem_ctrls0.bytes_read::ruby.dir_cntrl0     45606336                       # Number of bytes read from this memory
system.mem_ctrls0.bytes_read::total          45606336                       # Number of bytes read from this memory
system.mem_ctrls0.bytes_written::ruby.dir_cntrl0     20451008                       # Number of bytes written to this memory
system.mem_ctrls0.bytes_written::total       20451008                       # Number of bytes written to this memory
system.mem_ctrls0.num_reads::ruby.dir_cntrl0       712599                       # Number of read requests responded to by this memory
system.mem_ctrls0.num_reads::total             712599                       # Number of read requests responded to by this memory
system.mem_ctrls0.num_writes::ruby.dir_cntrl0       319547                       # Number of write requests responded to by this memory
system.mem_ctrls0.num_writes::total            319547                       # Number of write requests responded to by this memory
system.mem_ctrls0.bw_read::ruby.dir_cntrl0    380612232                       # Total read bandwidth from this memory (bytes/s)
system.mem_ctrls0.bw_read::total            380612232                       # Total read bandwidth from this memory (bytes/s)
system.mem_ctrls0.bw_write::ruby.dir_cntrl0    170675930                       # Write bandwidth from this memory (bytes/s)
system.mem_ctrls0.bw_write::total           170675930                       # Write bandwidth from this memory (bytes/s)
system.mem_ctrls0.bw_total::ruby.dir_cntrl0    551288161                       # Total bandwidth to/from this memory (bytes/s)
system.mem_ctrls0.bw_total::total           551288161                       # Total bandwidth to/from this memory (bytes/s)
system.mem_ctrls0.readReqs                     712599                       # Number of read requests accepted
system.mem_ctrls0.writeReqs                    319547                       # Number of write requests accepted
system.mem_ctrls0.readBursts                   712599                       # Number of DRAM read bursts, including those serviced by the write queue
system.mem_ctrls0.writeBursts                  319547                       # Number of DRAM write bursts, including those merged in the write queue
system.mem_ctrls0.bytesReadDRAM              45585856                       # Total number of bytes read from DRAM
system.mem_ctrls0.bytesReadWrQ                  20480                       # Total number of bytes read from write queue
system.mem_ctrls0.bytesWritten               20451008                       # Total number of bytes written to DRAM
system.mem_ctrls0.bytesReadSys               45606336                       # Total read bytes from the system interface side
system.mem_ctrls0.bytesWrittenSys            20451008                       # Total written bytes from the system interface side
system.mem_ctrls0.servicedByWrQ                   320                       # Number of DRAM read bursts serviced by the write queue
system.mem_ctrls0.mergedWrBursts                    0                       # Number of DRAM write bursts merged with an existing one
system.mem_ctrls0.neitherReadNorWriteReqs            0                       # Number of requests that are neither read nor write
system.mem_ctrls0.perBankRdBursts::0            44651                       # Per bank write bursts
system.mem_ctrls0.perBankRdBursts::1            44571                       # Per bank write bursts
system.mem_ctrls0.perBankRdBursts::2            44271                       # Per bank write bursts
system.mem_ctrls0.perBankRdBursts::3            44575                       # Per bank write bursts
system.mem_ctrls0.perBankRdBursts::4            44211                       # Per bank write bursts
system.mem_ctrls0.perBankRdBursts::5            44349                       # Per bank write bursts
system.mem_ctrls0.perBankRdBursts::6            45802                       # Per bank write bursts
system.mem_ctrls0.perBankRdBursts::7            44765                       # Per bank write bursts
system.mem_ctrls0.perBankRdBursts::8            43988                       # Per bank write bursts
system.mem_ctrls0.perBankRdBursts::9            44435                       # Per bank write bursts
system.mem_ctrls0.perBankRdBursts::10           44153                       # Per bank write bursts
system.mem_ctrls0.perBankRdBursts::11           44626                       # Per bank write bursts
system.mem_ctrls0.perBankRdBursts::12           44003                       # Per bank write bursts
system.mem_ctrls0.perBankRdBursts::13           44033                       # Per bank write bursts
system.mem_ctrls0.perBankRdBursts::14           45171                       # Per bank write bursts
system.mem_ctrls0.perBankRdBursts::15           44675                       # Per bank write bursts
system.mem_ctrls0.perBankWrBursts::0            19850                       # Per bank write bursts
system.mem_ctrls0.perBankWrBursts::1            19979                       # Per bank write bursts
system.mem_ctrls0.perBankWrBursts::2            20034                       # Per bank write bursts
system.mem_ctrls0.perBankWrBursts::3            20161                       # Per bank write bursts
system.mem_ctrls0.perBankWrBursts::4            20042                       # Per bank write bursts
system.mem_ctrls0.perBankWrBursts::5            20109                       # Per bank write bursts
system.mem_ctrls0.perBankWrBursts::6            20133                       # Per bank write bursts
system.mem_ctrls0.perBankWrBursts::7            20128                       # Per bank write bursts
system.mem_ctrls0.perBankWrBursts::8            19768                       # Per bank write bursts
system.mem_ctrls0.perBankWrBursts::9            20008                       # Per bank write bursts
system.mem_ctrls0.perBankWrBursts::10           19856                       # Per bank write bursts
system.mem_ctrls0.perBankWrBursts::11           19955                       # Per bank write bursts
system.mem_ctrls0.perBankWrBursts::12           19899                       # Per bank write bursts
system.mem_ctrls0.perBankWrBursts::13           19859                       # Per bank write bursts
system.mem_ctrls0.perBankWrBursts::14           19891                       # Per bank write bursts
system.mem_ctrls0.perBankWrBursts::15           19875                       # Per bank write bursts
system.mem_ctrls0.numRdRetry                   105575                       # Number of times read queue was full causing retry
system.mem_ctrls0.numWrRetry                    21537                       # Number of times write queue was full causing retry
system.mem_ctrls0.totGap                 119823016500                       # Total gap between requests
system.mem_ctrls0.readPktSize::0                    0                       # Read request sizes (log2)
system.mem_ctrls0.readPktSize::1                    0                       # Read request sizes (log2)
system.mem_ctrls0.readPktSize::2                    0                       # Read request sizes (log2)
system.mem_ctrls0.readPktSize::3                    0                       # Read request sizes (log2)
system.mem_ctrls0.readPktSize::4                    0                       # Read request sizes (log2)
system.mem_ctrls0.readPktSize::5                    0                       # Read request sizes (log2)
system.mem_ctrls0.readPktSize::6               712599                       # Read request sizes (log2)
system.mem_ctrls0.writePktSize::0                   0                       # Write request sizes (log2)
system.mem_ctrls0.writePktSize::1                   0                       # Write request sizes (log2)
system.mem_ctrls0.writePktSize::2                   0                       # Write request sizes (log2)
system.mem_ctrls0.writePktSize::3                   0                       # Write request sizes (log2)
system.mem_ctrls0.writePktSize::4                   0                       # Write request sizes (log2)
system.mem_ctrls0.writePktSize::5                   0                       # Write request sizes (log2)
system.mem_ctrls0.writePktSize::6              319547                       # Write request sizes (log2)
system.mem_ctrls0.rdQLenPdf::0                 177244                       # What read queue length does an incoming req see
system.mem_ctrls0.rdQLenPdf::1                  21092                       # What read queue length does an incoming req see
system.mem_ctrls0.rdQLenPdf::2                  20063                       # What read queue length does an incoming req see
system.mem_ctrls0.rdQLenPdf::3                  20883                       # What read queue length does an incoming req see
system.mem_ctrls0.rdQLenPdf::4                  21489                       # What read queue length does an incoming req see
system.mem_ctrls0.rdQLenPdf::5                  21860                       # What read queue length does an incoming req see
system.mem_ctrls0.rdQLenPdf::6                  21931                       # What read queue length does an incoming req see
system.mem_ctrls0.rdQLenPdf::7                  21717                       # What read queue length does an incoming req see
system.mem_ctrls0.rdQLenPdf::8                  21229                       # What read queue length does an incoming req see
system.mem_ctrls0.rdQLenPdf::9                  20605                       # What read queue length does an incoming req see
system.mem_ctrls0.rdQLenPdf::10                 19707                       # What read queue length does an incoming req see
system.mem_ctrls0.rdQLenPdf::11                 18924                       # What read queue length does an incoming req see
system.mem_ctrls0.rdQLenPdf::12                 17775                       # What read queue length does an incoming req see
system.mem_ctrls0.rdQLenPdf::13                 16567                       # What read queue length does an incoming req see
system.mem_ctrls0.rdQLenPdf::14                 15588                       # What read queue length does an incoming req see
system.mem_ctrls0.rdQLenPdf::15                 14469                       # What read queue length does an incoming req see
system.mem_ctrls0.rdQLenPdf::16                 13374                       # What read queue length does an incoming req see
system.mem_ctrls0.rdQLenPdf::17                 12355                       # What read queue length does an incoming req see
system.mem_ctrls0.rdQLenPdf::18                 11346                       # What read queue length does an incoming req see
system.mem_ctrls0.rdQLenPdf::19                 10770                       # What read queue length does an incoming req see
system.mem_ctrls0.rdQLenPdf::20                  9793                       # What read queue length does an incoming req see
system.mem_ctrls0.rdQLenPdf::21                  9196                       # What read queue length does an incoming req see
system.mem_ctrls0.rdQLenPdf::22                  8622                       # What read queue length does an incoming req see
system.mem_ctrls0.rdQLenPdf::23                  7933                       # What read queue length does an incoming req see
system.mem_ctrls0.rdQLenPdf::24                  7546                       # What read queue length does an incoming req see
system.mem_ctrls0.rdQLenPdf::25                  7043                       # What read queue length does an incoming req see
system.mem_ctrls0.rdQLenPdf::26                  6477                       # What read queue length does an incoming req see
system.mem_ctrls0.rdQLenPdf::27                  6302                       # What read queue length does an incoming req see
system.mem_ctrls0.rdQLenPdf::28                  5939                       # What read queue length does an incoming req see
system.mem_ctrls0.rdQLenPdf::29                  5901                       # What read queue length does an incoming req see
system.mem_ctrls0.rdQLenPdf::30                  6047                       # What read queue length does an incoming req see
system.mem_ctrls0.rdQLenPdf::31                112492                       # What read queue length does an incoming req see
system.mem_ctrls0.wrQLenPdf::0                  43931                       # What write queue length does an incoming req see
system.mem_ctrls0.wrQLenPdf::1                  47430                       # What write queue length does an incoming req see
system.mem_ctrls0.wrQLenPdf::2                  49514                       # What write queue length does an incoming req see
system.mem_ctrls0.wrQLenPdf::3                  51203                       # What write queue length does an incoming req see
system.mem_ctrls0.wrQLenPdf::4                  52730                       # What write queue length does an incoming req see
system.mem_ctrls0.wrQLenPdf::5                  18856                       # What write queue length does an incoming req see
system.mem_ctrls0.wrQLenPdf::6                  19675                       # What write queue length does an incoming req see
system.mem_ctrls0.wrQLenPdf::7                  36208                       # What write queue length does an incoming req see
system.mem_ctrls0.bytesPerActivate::samples       312901                       # Bytes accessed per row activation
system.mem_ctrls0.bytesPerActivate::mean   211.046535                       # Bytes accessed per row activation
system.mem_ctrls0.bytesPerActivate::gmean   158.917680                       # Bytes accessed per row activation
system.mem_ctrls0.bytesPerActivate::stdev   165.179437                       # Bytes accessed per row activation
system.mem_ctrls0.bytesPerActivate::0-127       100340     32.07%     32.07% # Bytes accessed per row activation
system.mem_ctrls0.bytesPerActivate::128-255        92889     29.69%     61.75% # Bytes accessed per row activation
system.mem_ctrls0.bytesPerActivate::256-383        73247     23.41%     85.16% # Bytes accessed per row activation
system.mem_ctrls0.bytesPerActivate::384-511        21475      6.86%     92.03% # Bytes accessed per row activation
system.mem_ctrls0.bytesPerActivate::512-639        16372      5.23%     97.26% # Bytes accessed per row activation
system.mem_ctrls0.bytesPerActivate::640-767         3953      1.26%     98.52% # Bytes accessed per row activation
system.mem_ctrls0.bytesPerActivate::768-895         2448      0.78%     99.30% # Bytes accessed per row activation
system.mem_ctrls0.bytesPerActivate::896-1023         1590      0.51%     99.81% # Bytes accessed per row activation
system.mem_ctrls0.bytesPerActivate::1024-1151          587      0.19%    100.00% # Bytes accessed per row activation
system.mem_ctrls0.bytesPerActivate::total       312901                       # Bytes accessed per row activation
system.mem_ctrls0.rdPerTurnAround::samples        46274                       # Reads before turning the bus around for writes
system.mem_ctrls0.rdPerTurnAround::mean     15.392488                       # Reads before turning the bus around for writes
system.mem_ctrls0.rdPerTurnAround::stdev    37.512101                       # Reads before turning the bus around for writes
system.mem_ctrls0.rdPerTurnAround::0-127        45944     99.29%     99.29% # Reads before turning the bus around for writes
system.mem_ctrls0.rdPerTurnAround::128-255          226      0.49%     99.78% # Reads before turning the bus around for writes
system.mem_ctrls0.rdPerTurnAround::256-383           51      0.11%     99.89% # Reads before turning the bus around for writes
system.mem_ctrls0.rdPerTurnAround::384-511           19      0.04%     99.93% # Reads before turning the bus around for writes
system.mem_ctrls0.rdPerTurnAround::512-639           11      0.02%     99.95% # Reads before turning the bus around for writes
system.mem_ctrls0.rdPerTurnAround::640-767            7      0.02%     99.97% # Reads before turning the bus around for writes
system.mem_ctrls0.rdPerTurnAround::768-895            6      0.01%     99.98% # Reads before turning the bus around for writes
system.mem_ctrls0.rdPerTurnAround::896-1023            4      0.01%     99.99% # Reads before turning the bus around for writes
system.mem_ctrls0.rdPerTurnAround::1024-1151            1      0.00%     99.99% # Reads before turning the bus around for writes
system.mem_ctrls0.rdPerTurnAround::1152-1279            3      0.01%    100.00% # Reads before turning the bus around for writes
system.mem_ctrls0.rdPerTurnAround::1664-1791            1      0.00%    100.00% # Reads before turning the bus around for writes
system.mem_ctrls0.rdPerTurnAround::3968-4095            1      0.00%    100.00% # Reads before turning the bus around for writes
system.mem_ctrls0.rdPerTurnAround::total        46274                       # Reads before turning the bus around for writes
system.mem_ctrls0.wrPerTurnAround::samples        46274                       # Writes before turning the bus around for reads
system.mem_ctrls0.wrPerTurnAround::mean      6.905541                       # Writes before turning the bus around for reads
system.mem_ctrls0.wrPerTurnAround::gmean     6.308651                       # Writes before turning the bus around for reads
system.mem_ctrls0.wrPerTurnAround::stdev     3.441262                       # Writes before turning the bus around for reads
system.mem_ctrls0.wrPerTurnAround::4-7          34863     75.34%     75.34% # Writes before turning the bus around for reads
system.mem_ctrls0.wrPerTurnAround::8-11          4961     10.72%     86.06% # Writes before turning the bus around for reads
system.mem_ctrls0.wrPerTurnAround::12-15         3446      7.45%     93.51% # Writes before turning the bus around for reads
system.mem_ctrls0.wrPerTurnAround::16-19         3004      6.49%    100.00% # Writes before turning the bus around for reads
system.mem_ctrls0.wrPerTurnAround::total        46274                       # Writes before turning the bus around for reads
system.mem_ctrls0.totQLat                 87575048394                       # Total ticks spent queuing
system.mem_ctrls0.totMemAccLat           100930279644                       # Total ticks spent from burst creation until serviced by the DRAM
system.mem_ctrls0.totBusLat                3561395000                       # Total ticks spent in databus transfers
system.mem_ctrls0.avgQLat                   122950.48                       # Average queueing delay per DRAM burst
system.mem_ctrls0.avgBusLat                   5000.00                       # Average bus latency per DRAM burst
system.mem_ctrls0.avgMemAccLat              141700.48                       # Average memory access latency per DRAM burst
system.mem_ctrls0.avgRdBW                      380.44                       # Average DRAM read bandwidth in MiByte/s
system.mem_ctrls0.avgWrBW                      170.68                       # Average achieved write bandwidth in MiByte/s
system.mem_ctrls0.avgRdBWSys                   380.61                       # Average system read bandwidth in MiByte/s
system.mem_ctrls0.avgWrBWSys                   170.68                       # Average system write bandwidth in MiByte/s
system.mem_ctrls0.peakBW                     12800.00                       # Theoretical peak bandwidth in MiByte/s
system.mem_ctrls0.busUtil                        4.31                       # Data bus utilization in percentage
system.mem_ctrls0.busUtilRead                    2.97                       # Data bus utilization in percentage for reads
system.mem_ctrls0.busUtilWrite                   1.33                       # Data bus utilization in percentage for writes
system.mem_ctrls0.avgRdQLen                      1.98                       # Average read queue length when enqueuing
system.mem_ctrls0.avgWrQLen                      3.07                       # Average write queue length when enqueuing
system.mem_ctrls0.readRowHits                  540579                       # Number of row buffer hits during reads
system.mem_ctrls0.writeRowHits                 178345                       # Number of row buffer hits during writes
system.mem_ctrls0.readRowHitRate                75.89                       # Row buffer hit rate for reads
system.mem_ctrls0.writeRowHitRate               55.81                       # Row buffer hit rate for writes
system.mem_ctrls0.avgGap                    116091.15                       # Average gap between requests
system.mem_ctrls0.pageHitRate                   69.67                       # Row buffer hit rate, read and write combined
system.mem_ctrls0.memoryStateTime::IDLE   20218877000                       # Time in different power states
system.mem_ctrls0.memoryStateTime::REF     4001140000                       # Time in different power states
system.mem_ctrls0.memoryStateTime::PRE_PDN            0                       # Time in different power states
system.mem_ctrls0.memoryStateTime::ACT    95602858000                       # Time in different power states
system.mem_ctrls0.memoryStateTime::ACT_PDN            0                       # Time in different power states
system.mem_ctrls0.actEnergy::0             1190253960                       # Energy for activate commands per rank (pJ)
system.mem_ctrls0.actEnergy::1             1175277600                       # Energy for activate commands per rank (pJ)
system.mem_ctrls0.preEnergy::0              649444125                       # Energy for precharge commands per rank (pJ)
system.mem_ctrls0.preEnergy::1              641272500                       # Energy for precharge commands per rank (pJ)
system.mem_ctrls0.readEnergy::0            2786121000                       # Energy for read commands per rank (pJ)
system.mem_ctrls0.readEnergy::1            2769631800                       # Energy for read commands per rank (pJ)
system.mem_ctrls0.writeEnergy::0           1039625280                       # Energy for write commands per rank (pJ)
system.mem_ctrls0.writeEnergy::1           1031039280                       # Energy for write commands per rank (pJ)
system.mem_ctrls0.refreshEnergy::0         7826229840                       # Energy for refresh commands per rank (pJ)
system.mem_ctrls0.refreshEnergy::1         7826229840                       # Energy for refresh commands per rank (pJ)
system.mem_ctrls0.actBackEnergy::0        49443034050                       # Energy for active background per rank (pJ)
system.mem_ctrls0.actBackEnergy::1        48969153720                       # Energy for active background per rank (pJ)
system.mem_ctrls0.preBackEnergy::0        28522634250                       # Energy for precharge background per rank (pJ)
system.mem_ctrls0.preBackEnergy::1        28938318750                       # Energy for precharge background per rank (pJ)
system.mem_ctrls0.totalEnergy::0          91457342505                       # Total energy per rank (pJ)
system.mem_ctrls0.totalEnergy::1          91350923490                       # Total energy per rank (pJ)
system.mem_ctrls0.averagePower::0          763.271228                       # Core power per rank (mW)
system.mem_ctrls0.averagePower::1          762.383092                       # Core power per rank (mW)
system.mem_ctrls1.bytes_read::ruby.dir_cntrl1     45100864                       # Number of bytes read from this memory
system.mem_ctrls1.bytes_read::total          45100864                       # Number of bytes read from this memory
system.mem_ctrls1.bytes_written::ruby.dir_cntrl1     19910848                       # Number of bytes written to this memory
system.mem_ctrls1.bytes_written::total       19910848                       # Number of bytes written to this memory
system.mem_ctrls1.num_reads::ruby.dir_cntrl1       704701                       # Number of read requests responded to by this memory
system.mem_ctrls1.num_reads::total             704701                       # Number of read requests responded to by this memory
system.mem_ctrls1.num_writes::ruby.dir_cntrl1       311107                       # Number of write requests responded to by this memory
system.mem_ctrls1.num_writes::total            311107                       # Number of write requests responded to by this memory
system.mem_ctrls1.bw_read::ruby.dir_cntrl1    376393765                       # Total read bandwidth from this memory (bytes/s)
system.mem_ctrls1.bw_read::total            376393765                       # Total read bandwidth from this memory (bytes/s)
system.mem_ctrls1.bw_write::ruby.dir_cntrl1    166167970                       # Write bandwidth from this memory (bytes/s)
system.mem_ctrls1.bw_write::total           166167970                       # Write bandwidth from this memory (bytes/s)
system.mem_ctrls1.bw_total::ruby.dir_cntrl1    542561735                       # Total bandwidth to/from this memory (bytes/s)
system.mem_ctrls1.bw_total::total           542561735                       # Total bandwidth to/from this memory (bytes/s)
system.mem_ctrls1.readReqs                     704701                       # Number of read requests accepted
system.mem_ctrls1.writeReqs                    311107                       # Number of write requests accepted
system.mem_ctrls1.readBursts                   704701                       # Number of DRAM read bursts, including those serviced by the write queue
system.mem_ctrls1.writeBursts                  311107                       # Number of DRAM write bursts, including those merged in the write queue
system.mem_ctrls1.bytesReadDRAM              45082240                       # Total number of bytes read from DRAM
system.mem_ctrls1.bytesReadWrQ                  18624                       # Total number of bytes read from write queue
system.mem_ctrls1.bytesWritten               19910848                       # Total number of bytes written to DRAM
system.mem_ctrls1.bytesReadSys               45100864                       # Total read bytes from the system interface side
system.mem_ctrls1.bytesWrittenSys            19910848                       # Total written bytes from the system interface side
system.mem_ctrls1.servicedByWrQ                   291                       # Number of DRAM read bursts serviced by the write queue
system.mem_ctrls1.mergedWrBursts                    0                       # Number of DRAM write bursts merged with an existing one
system.mem_ctrls1.neitherReadNorWriteReqs            0                       # Number of requests that are neither read nor write
system.mem_ctrls1.perBankRdBursts::0            44135                       # Per bank write bursts
system.mem_ctrls1.perBankRdBursts::1            44293                       # Per bank write bursts
system.mem_ctrls1.perBankRdBursts::2            43585                       # Per bank write bursts
system.mem_ctrls1.perBankRdBursts::3            44210                       # Per bank write bursts
system.mem_ctrls1.perBankRdBursts::4            43739                       # Per bank write bursts
system.mem_ctrls1.perBankRdBursts::5            43901                       # Per bank write bursts
system.mem_ctrls1.perBankRdBursts::6            45407                       # Per bank write bursts
system.mem_ctrls1.perBankRdBursts::7            44449                       # Per bank write bursts
system.mem_ctrls1.perBankRdBursts::8            43506                       # Per bank write bursts
system.mem_ctrls1.perBankRdBursts::9            44012                       # Per bank write bursts
system.mem_ctrls1.perBankRdBursts::10           43371                       # Per bank write bursts
system.mem_ctrls1.perBankRdBursts::11           44203                       # Per bank write bursts
system.mem_ctrls1.perBankRdBursts::12           43399                       # Per bank write bursts
system.mem_ctrls1.perBankRdBursts::13           43522                       # Per bank write bursts
system.mem_ctrls1.perBankRdBursts::14           44381                       # Per bank write bursts
system.mem_ctrls1.perBankRdBursts::15           44297                       # Per bank write bursts
system.mem_ctrls1.perBankWrBursts::0            19314                       # Per bank write bursts
system.mem_ctrls1.perBankWrBursts::1            19526                       # Per bank write bursts
system.mem_ctrls1.perBankWrBursts::2            19481                       # Per bank write bursts
system.mem_ctrls1.perBankWrBursts::3            19688                       # Per bank write bursts
system.mem_ctrls1.perBankWrBursts::4            19534                       # Per bank write bursts
system.mem_ctrls1.perBankWrBursts::5            19603                       # Per bank write bursts
system.mem_ctrls1.perBankWrBursts::6            19576                       # Per bank write bursts
system.mem_ctrls1.perBankWrBursts::7            19575                       # Per bank write bursts
system.mem_ctrls1.perBankWrBursts::8            19238                       # Per bank write bursts
system.mem_ctrls1.perBankWrBursts::9            19548                       # Per bank write bursts
system.mem_ctrls1.perBankWrBursts::10           19254                       # Per bank write bursts
system.mem_ctrls1.perBankWrBursts::11           19500                       # Per bank write bursts
system.mem_ctrls1.perBankWrBursts::12           19311                       # Per bank write bursts
system.mem_ctrls1.perBankWrBursts::13           19357                       # Per bank write bursts
system.mem_ctrls1.perBankWrBursts::14           19264                       # Per bank write bursts
system.mem_ctrls1.perBankWrBursts::15           19338                       # Per bank write bursts
system.mem_ctrls1.numRdRetry                   105433                       # Number of times read queue was full causing retry
system.mem_ctrls1.numWrRetry                    21845                       # Number of times write queue was full causing retry
system.mem_ctrls1.totGap                 119822768000                       # Total gap between requests
system.mem_ctrls1.readPktSize::0                    0                       # Read request sizes (log2)
system.mem_ctrls1.readPktSize::1                    0                       # Read request sizes (log2)
system.mem_ctrls1.readPktSize::2                    0                       # Read request sizes (log2)
system.mem_ctrls1.readPktSize::3                    0                       # Read request sizes (log2)
system.mem_ctrls1.readPktSize::4                    0                       # Read request sizes (log2)
system.mem_ctrls1.readPktSize::5                    0                       # Read request sizes (log2)
system.mem_ctrls1.readPktSize::6               704701                       # Read request sizes (log2)
system.mem_ctrls1.writePktSize::0                   0                       # Write request sizes (log2)
system.mem_ctrls1.writePktSize::1                   0                       # Write request sizes (log2)
system.mem_ctrls1.writePktSize::2                   0                       # Write request sizes (log2)
system.mem_ctrls1.writePktSize::3                   0                       # Write request sizes (log2)
system.mem_ctrls1.writePktSize::4                   0                       # Write request sizes (log2)
system.mem_ctrls1.writePktSize::5                   0                       # Write request sizes (log2)
system.mem_ctrls1.writePktSize::6              311107                       # Write request sizes (log2)
system.mem_ctrls1.rdQLenPdf::0                 170066                       # What read queue length does an incoming req see
system.mem_ctrls1.rdQLenPdf::1                  20017                       # What read queue length does an incoming req see
system.mem_ctrls1.rdQLenPdf::2                  20467                       # What read queue length does an incoming req see
system.mem_ctrls1.rdQLenPdf::3                  21369                       # What read queue length does an incoming req see
system.mem_ctrls1.rdQLenPdf::4                  21733                       # What read queue length does an incoming req see
system.mem_ctrls1.rdQLenPdf::5                  21832                       # What read queue length does an incoming req see
system.mem_ctrls1.rdQLenPdf::6                  21991                       # What read queue length does an incoming req see
system.mem_ctrls1.rdQLenPdf::7                  21875                       # What read queue length does an incoming req see
system.mem_ctrls1.rdQLenPdf::8                  21275                       # What read queue length does an incoming req see
system.mem_ctrls1.rdQLenPdf::9                  20550                       # What read queue length does an incoming req see
system.mem_ctrls1.rdQLenPdf::10                 19905                       # What read queue length does an incoming req see
system.mem_ctrls1.rdQLenPdf::11                 18782                       # What read queue length does an incoming req see
system.mem_ctrls1.rdQLenPdf::12                 17675                       # What read queue length does an incoming req see
system.mem_ctrls1.rdQLenPdf::13                 16736                       # What read queue length does an incoming req see
system.mem_ctrls1.rdQLenPdf::14                 15841                       # What read queue length does an incoming req see
system.mem_ctrls1.rdQLenPdf::15                 14426                       # What read queue length does an incoming req see
system.mem_ctrls1.rdQLenPdf::16                 13387                       # What read queue length does an incoming req see
system.mem_ctrls1.rdQLenPdf::17                 12447                       # What read queue length does an incoming req see
system.mem_ctrls1.rdQLenPdf::18                 11324                       # What read queue length does an incoming req see
system.mem_ctrls1.rdQLenPdf::19                 10489                       # What read queue length does an incoming req see
system.mem_ctrls1.rdQLenPdf::20                  9783                       # What read queue length does an incoming req see
system.mem_ctrls1.rdQLenPdf::21                  9012                       # What read queue length does an incoming req see
system.mem_ctrls1.rdQLenPdf::22                  8510                       # What read queue length does an incoming req see
system.mem_ctrls1.rdQLenPdf::23                  7895                       # What read queue length does an incoming req see
system.mem_ctrls1.rdQLenPdf::24                  7363                       # What read queue length does an incoming req see
system.mem_ctrls1.rdQLenPdf::25                  6912                       # What read queue length does an incoming req see
system.mem_ctrls1.rdQLenPdf::26                  6552                       # What read queue length does an incoming req see
system.mem_ctrls1.rdQLenPdf::27                  6155                       # What read queue length does an incoming req see
system.mem_ctrls1.rdQLenPdf::28                  5935                       # What read queue length does an incoming req see
system.mem_ctrls1.rdQLenPdf::29                  5824                       # What read queue length does an incoming req see
system.mem_ctrls1.rdQLenPdf::30                  6047                       # What read queue length does an incoming req see
system.mem_ctrls1.rdQLenPdf::31                112235                       # What read queue length does an incoming req see
system.mem_ctrls1.wrQLenPdf::0                  42290                       # What write queue length does an incoming req see
system.mem_ctrls1.wrQLenPdf::1                  45692                       # What write queue length does an incoming req see
system.mem_ctrls1.wrQLenPdf::2                  47901                       # What write queue length does an incoming req see
system.mem_ctrls1.wrQLenPdf::3                  49550                       # What write queue length does an incoming req see
system.mem_ctrls1.wrQLenPdf::4                  51027                       # What write queue length does an incoming req see
system.mem_ctrls1.wrQLenPdf::5                  18612                       # What write queue length does an incoming req see
system.mem_ctrls1.wrQLenPdf::6                  19642                       # What write queue length does an incoming req see
system.mem_ctrls1.wrQLenPdf::7                  36393                       # What write queue length does an incoming req see
system.mem_ctrls1.bytesPerActivate::samples       299703                       # Bytes accessed per row activation
system.mem_ctrls1.bytesPerActivate::mean   216.857676                       # Bytes accessed per row activation
system.mem_ctrls1.bytesPerActivate::gmean   163.383585                       # Bytes accessed per row activation
system.mem_ctrls1.bytesPerActivate::stdev   167.163956                       # Bytes accessed per row activation
system.mem_ctrls1.bytesPerActivate::0-127        93585     31.23%     31.23% # Bytes accessed per row activation
system.mem_ctrls1.bytesPerActivate::128-255        85934     28.67%     59.90% # Bytes accessed per row activation
system.mem_ctrls1.bytesPerActivate::256-383        73510     24.53%     84.43% # Bytes accessed per row activation
system.mem_ctrls1.bytesPerActivate::384-511        21404      7.14%     91.57% # Bytes accessed per row activation
system.mem_ctrls1.bytesPerActivate::512-639        16600      5.54%     97.11% # Bytes accessed per row activation
system.mem_ctrls1.bytesPerActivate::640-767         4072      1.36%     98.47% # Bytes accessed per row activation
system.mem_ctrls1.bytesPerActivate::768-895         2472      0.82%     99.29% # Bytes accessed per row activation
system.mem_ctrls1.bytesPerActivate::896-1023         1581      0.53%     99.82% # Bytes accessed per row activation
system.mem_ctrls1.bytesPerActivate::1024-1151          545      0.18%    100.00% # Bytes accessed per row activation
system.mem_ctrls1.bytesPerActivate::total       299703                       # Bytes accessed per row activation
system.mem_ctrls1.rdPerTurnAround::samples        44665                       # Reads before turning the bus around for writes
system.mem_ctrls1.rdPerTurnAround::mean     15.770939                       # Reads before turning the bus around for writes
system.mem_ctrls1.rdPerTurnAround::stdev    36.309212                       # Reads before turning the bus around for writes
system.mem_ctrls1.rdPerTurnAround::0-127        44362     99.32%     99.32% # Reads before turning the bus around for writes
system.mem_ctrls1.rdPerTurnAround::128-255          210      0.47%     99.79% # Reads before turning the bus around for writes
system.mem_ctrls1.rdPerTurnAround::256-383           43      0.10%     99.89% # Reads before turning the bus around for writes
system.mem_ctrls1.rdPerTurnAround::384-511           19      0.04%     99.93% # Reads before turning the bus around for writes
system.mem_ctrls1.rdPerTurnAround::512-639            7      0.02%     99.95% # Reads before turning the bus around for writes
system.mem_ctrls1.rdPerTurnAround::640-767            3      0.01%     99.95% # Reads before turning the bus around for writes
system.mem_ctrls1.rdPerTurnAround::768-895            8      0.02%     99.97% # Reads before turning the bus around for writes
system.mem_ctrls1.rdPerTurnAround::896-1023            3      0.01%     99.98% # Reads before turning the bus around for writes
system.mem_ctrls1.rdPerTurnAround::1024-1151            4      0.01%     99.99% # Reads before turning the bus around for writes
system.mem_ctrls1.rdPerTurnAround::1152-1279            4      0.01%    100.00% # Reads before turning the bus around for writes
system.mem_ctrls1.rdPerTurnAround::1280-1407            1      0.00%    100.00% # Reads before turning the bus around for writes
system.mem_ctrls1.rdPerTurnAround::2816-2943            1      0.00%    100.00% # Reads before turning the bus around for writes
system.mem_ctrls1.rdPerTurnAround::total        44665                       # Reads before turning the bus around for writes
system.mem_ctrls1.wrPerTurnAround::samples        44665                       # Writes before turning the bus around for reads
system.mem_ctrls1.wrPerTurnAround::mean      6.965342                       # Writes before turning the bus around for reads
system.mem_ctrls1.wrPerTurnAround::gmean     6.353532                       # Writes before turning the bus around for reads
system.mem_ctrls1.wrPerTurnAround::stdev     3.480847                       # Writes before turning the bus around for reads
system.mem_ctrls1.wrPerTurnAround::4-7          33252     74.45%     74.45% # Writes before turning the bus around for reads
system.mem_ctrls1.wrPerTurnAround::8-11          4974     11.14%     85.58% # Writes before turning the bus around for reads
system.mem_ctrls1.wrPerTurnAround::12-15         3481      7.79%     93.38% # Writes before turning the bus around for reads
system.mem_ctrls1.wrPerTurnAround::16-19         2958      6.62%    100.00% # Writes before turning the bus around for reads
system.mem_ctrls1.wrPerTurnAround::total        44665                       # Writes before turning the bus around for reads
system.mem_ctrls1.totQLat                 86825936530                       # Total ticks spent queuing
system.mem_ctrls1.totMemAccLat           100033624030                       # Total ticks spent from burst creation until serviced by the DRAM
system.mem_ctrls1.totBusLat                3522050000                       # Total ticks spent in databus transfers
system.mem_ctrls1.avgQLat                   123260.51                       # Average queueing delay per DRAM burst
system.mem_ctrls1.avgBusLat                   5000.00                       # Average bus latency per DRAM burst
system.mem_ctrls1.avgMemAccLat              142010.51                       # Average memory access latency per DRAM burst
system.mem_ctrls1.avgRdBW                      376.24                       # Average DRAM read bandwidth in MiByte/s
system.mem_ctrls1.avgWrBW                      166.17                       # Average achieved write bandwidth in MiByte/s
system.mem_ctrls1.avgRdBWSys                   376.39                       # Average system read bandwidth in MiByte/s
system.mem_ctrls1.avgWrBWSys                   166.17                       # Average system write bandwidth in MiByte/s
system.mem_ctrls1.peakBW                     12800.00                       # Theoretical peak bandwidth in MiByte/s
system.mem_ctrls1.busUtil                        4.24                       # Data bus utilization in percentage
system.mem_ctrls1.busUtilRead                    2.94                       # Data bus utilization in percentage for reads
system.mem_ctrls1.busUtilWrite                   1.30                       # Data bus utilization in percentage for writes
system.mem_ctrls1.avgRdQLen                      1.97                       # Average read queue length when enqueuing
system.mem_ctrls1.avgWrQLen                      3.06                       # Average write queue length when enqueuing
system.mem_ctrls1.readRowHits                  537793                       # Number of row buffer hits during reads
system.mem_ctrls1.writeRowHits                 178018                       # Number of row buffer hits during writes
system.mem_ctrls1.readRowHitRate                76.35                       # Row buffer hit rate for reads
system.mem_ctrls1.writeRowHitRate               57.22                       # Row buffer hit rate for writes
system.mem_ctrls1.avgGap                    117958.09                       # Average gap between requests
system.mem_ctrls1.pageHitRate                   70.49                       # Row buffer hit rate, read and write combined
system.mem_ctrls1.memoryStateTime::IDLE   20708662250                       # Time in different power states
system.mem_ctrls1.memoryStateTime::REF     4001140000                       # Time in different power states
system.mem_ctrls1.memoryStateTime::PRE_PDN            0                       # Time in different power states
system.mem_ctrls1.memoryStateTime::ACT    95113191750                       # Time in different power states
system.mem_ctrls1.memoryStateTime::ACT_PDN            0                       # Time in different power states
system.mem_ctrls1.actEnergy::0             1144213560                       # Energy for activate commands per rank (pJ)
system.mem_ctrls1.actEnergy::1             1121518440                       # Energy for activate commands per rank (pJ)
system.mem_ctrls1.preEnergy::0              624322875                       # Energy for precharge commands per rank (pJ)
system.mem_ctrls1.preEnergy::1              611939625                       # Energy for precharge commands per rank (pJ)
system.mem_ctrls1.readEnergy::0            2759008200                       # Energy for read commands per rank (pJ)
system.mem_ctrls1.readEnergy::1            2735366400                       # Energy for read commands per rank (pJ)
system.mem_ctrls1.writeEnergy::0           1012798080                       # Energy for write commands per rank (pJ)
system.mem_ctrls1.writeEnergy::1           1003136400                       # Energy for write commands per rank (pJ)
system.mem_ctrls1.refreshEnergy::0         7826229840                       # Energy for refresh commands per rank (pJ)
system.mem_ctrls1.refreshEnergy::1         7826229840                       # Energy for refresh commands per rank (pJ)
system.mem_ctrls1.actBackEnergy::0        48232717425                       # Energy for active background per rank (pJ)
system.mem_ctrls1.actBackEnergy::1        48006740070                       # Energy for active background per rank (pJ)
system.mem_ctrls1.preBackEnergy::0        29584315500                       # Energy for precharge background per rank (pJ)
system.mem_ctrls1.preBackEnergy::1        29782541250                       # Energy for precharge background per rank (pJ)
system.mem_ctrls1.totalEnergy::0          91183605480                       # Total energy per rank (pJ)
system.mem_ctrls1.totalEnergy::1          91087472025                       # Total energy per rank (pJ)
system.mem_ctrls1.averagePower::0          760.986714                       # Core power per rank (mW)
system.mem_ctrls1.averagePower::1          760.184418                       # Core power per rank (mW)
system.mem_ctrls2.bytes_read::ruby.dir_cntrl2     45078976                       # Number of bytes read from this memory
system.mem_ctrls2.bytes_read::total          45078976                       # Number of bytes read from this memory
system.mem_ctrls2.bytes_written::ruby.dir_cntrl2     19925312                       # Number of bytes written to this memory
system.mem_ctrls2.bytes_written::total       19925312                       # Number of bytes written to this memory
system.mem_ctrls2.num_reads::ruby.dir_cntrl2       704359                       # Number of read requests responded to by this memory
system.mem_ctrls2.num_reads::total             704359                       # Number of read requests responded to by this memory
system.mem_ctrls2.num_writes::ruby.dir_cntrl2       311333                       # Number of write requests responded to by this memory
system.mem_ctrls2.num_writes::total            311333                       # Number of write requests responded to by this memory
system.mem_ctrls2.bw_read::ruby.dir_cntrl2    376211096                       # Total read bandwidth from this memory (bytes/s)
system.mem_ctrls2.bw_read::total            376211096                       # Total read bandwidth from this memory (bytes/s)
system.mem_ctrls2.bw_write::ruby.dir_cntrl2    166288681                       # Write bandwidth from this memory (bytes/s)
system.mem_ctrls2.bw_write::total           166288681                       # Write bandwidth from this memory (bytes/s)
system.mem_ctrls2.bw_total::ruby.dir_cntrl2    542499777                       # Total bandwidth to/from this memory (bytes/s)
system.mem_ctrls2.bw_total::total           542499777                       # Total bandwidth to/from this memory (bytes/s)
system.mem_ctrls2.readReqs                     704359                       # Number of read requests accepted
system.mem_ctrls2.writeReqs                    311333                       # Number of write requests accepted
system.mem_ctrls2.readBursts                   704359                       # Number of DRAM read bursts, including those serviced by the write queue
system.mem_ctrls2.writeBursts                  311333                       # Number of DRAM write bursts, including those merged in the write queue
system.mem_ctrls2.bytesReadDRAM              45064000                       # Total number of bytes read from DRAM
system.mem_ctrls2.bytesReadWrQ                  14976                       # Total number of bytes read from write queue
system.mem_ctrls2.bytesWritten               19925184                       # Total number of bytes written to DRAM
system.mem_ctrls2.bytesReadSys               45078976                       # Total read bytes from the system interface side
system.mem_ctrls2.bytesWrittenSys            19925312                       # Total written bytes from the system interface side
system.mem_ctrls2.servicedByWrQ                   234                       # Number of DRAM read bursts serviced by the write queue
system.mem_ctrls2.mergedWrBursts                    0                       # Number of DRAM write bursts merged with an existing one
system.mem_ctrls2.neitherReadNorWriteReqs            0                       # Number of requests that are neither read nor write
system.mem_ctrls2.perBankRdBursts::0            44177                       # Per bank write bursts
system.mem_ctrls2.perBankRdBursts::1            44231                       # Per bank write bursts
system.mem_ctrls2.perBankRdBursts::2            43765                       # Per bank write bursts
system.mem_ctrls2.perBankRdBursts::3            44085                       # Per bank write bursts
system.mem_ctrls2.perBankRdBursts::4            43905                       # Per bank write bursts
system.mem_ctrls2.perBankRdBursts::5            43807                       # Per bank write bursts
system.mem_ctrls2.perBankRdBursts::6            45273                       # Per bank write bursts
system.mem_ctrls2.perBankRdBursts::7            44212                       # Per bank write bursts
system.mem_ctrls2.perBankRdBursts::8            43586                       # Per bank write bursts
system.mem_ctrls2.perBankRdBursts::9            43879                       # Per bank write bursts
system.mem_ctrls2.perBankRdBursts::10           43535                       # Per bank write bursts
system.mem_ctrls2.perBankRdBursts::11           44116                       # Per bank write bursts
system.mem_ctrls2.perBankRdBursts::12           43620                       # Per bank write bursts
system.mem_ctrls2.perBankRdBursts::13           43453                       # Per bank write bursts
system.mem_ctrls2.perBankRdBursts::14           44417                       # Per bank write bursts
system.mem_ctrls2.perBankRdBursts::15           44064                       # Per bank write bursts
system.mem_ctrls2.perBankWrBursts::0            19360                       # Per bank write bursts
system.mem_ctrls2.perBankWrBursts::1            19519                       # Per bank write bursts
system.mem_ctrls2.perBankWrBursts::2            19537                       # Per bank write bursts
system.mem_ctrls2.perBankWrBursts::3            19628                       # Per bank write bursts
system.mem_ctrls2.perBankWrBursts::4            19619                       # Per bank write bursts
system.mem_ctrls2.perBankWrBursts::5            19533                       # Per bank write bursts
system.mem_ctrls2.perBankWrBursts::6            19584                       # Per bank write bursts
system.mem_ctrls2.perBankWrBursts::7            19561                       # Per bank write bursts
system.mem_ctrls2.perBankWrBursts::8            19294                       # Per bank write bursts
system.mem_ctrls2.perBankWrBursts::9            19525                       # Per bank write bursts
system.mem_ctrls2.perBankWrBursts::10           19316                       # Per bank write bursts
system.mem_ctrls2.perBankWrBursts::11           19464                       # Per bank write bursts
system.mem_ctrls2.perBankWrBursts::12           19398                       # Per bank write bursts
system.mem_ctrls2.perBankWrBursts::13           19286                       # Per bank write bursts
system.mem_ctrls2.perBankWrBursts::14           19374                       # Per bank write bursts
system.mem_ctrls2.perBankWrBursts::15           19333                       # Per bank write bursts
system.mem_ctrls2.numRdRetry                   106454                       # Number of times read queue was full causing retry
system.mem_ctrls2.numWrRetry                    22561                       # Number of times write queue was full causing retry
system.mem_ctrls2.totGap                 119823574500                       # Total gap between requests
system.mem_ctrls2.readPktSize::0                    0                       # Read request sizes (log2)
system.mem_ctrls2.readPktSize::1                    0                       # Read request sizes (log2)
system.mem_ctrls2.readPktSize::2                    0                       # Read request sizes (log2)
system.mem_ctrls2.readPktSize::3                    0                       # Read request sizes (log2)
system.mem_ctrls2.readPktSize::4                    0                       # Read request sizes (log2)
system.mem_ctrls2.readPktSize::5                    0                       # Read request sizes (log2)
system.mem_ctrls2.readPktSize::6               704359                       # Read request sizes (log2)
system.mem_ctrls2.writePktSize::0                   0                       # Write request sizes (log2)
system.mem_ctrls2.writePktSize::1                   0                       # Write request sizes (log2)
system.mem_ctrls2.writePktSize::2                   0                       # Write request sizes (log2)
system.mem_ctrls2.writePktSize::3                   0                       # Write request sizes (log2)
system.mem_ctrls2.writePktSize::4                   0                       # Write request sizes (log2)
system.mem_ctrls2.writePktSize::5                   0                       # Write request sizes (log2)
system.mem_ctrls2.writePktSize::6              311333                       # Write request sizes (log2)
system.mem_ctrls2.rdQLenPdf::0                 170377                       # What read queue length does an incoming req see
system.mem_ctrls2.rdQLenPdf::1                  19908                       # What read queue length does an incoming req see
system.mem_ctrls2.rdQLenPdf::2                  20234                       # What read queue length does an incoming req see
system.mem_ctrls2.rdQLenPdf::3                  20964                       # What read queue length does an incoming req see
system.mem_ctrls2.rdQLenPdf::4                  21413                       # What read queue length does an incoming req see
system.mem_ctrls2.rdQLenPdf::5                  21758                       # What read queue length does an incoming req see
system.mem_ctrls2.rdQLenPdf::6                  21848                       # What read queue length does an incoming req see
system.mem_ctrls2.rdQLenPdf::7                  21704                       # What read queue length does an incoming req see
system.mem_ctrls2.rdQLenPdf::8                  21074                       # What read queue length does an incoming req see
system.mem_ctrls2.rdQLenPdf::9                  20457                       # What read queue length does an incoming req see
system.mem_ctrls2.rdQLenPdf::10                 19671                       # What read queue length does an incoming req see
system.mem_ctrls2.rdQLenPdf::11                 18749                       # What read queue length does an incoming req see
system.mem_ctrls2.rdQLenPdf::12                 17835                       # What read queue length does an incoming req see
system.mem_ctrls2.rdQLenPdf::13                 16748                       # What read queue length does an incoming req see
system.mem_ctrls2.rdQLenPdf::14                 15653                       # What read queue length does an incoming req see
system.mem_ctrls2.rdQLenPdf::15                 14499                       # What read queue length does an incoming req see
system.mem_ctrls2.rdQLenPdf::16                 13116                       # What read queue length does an incoming req see
system.mem_ctrls2.rdQLenPdf::17                 12192                       # What read queue length does an incoming req see
system.mem_ctrls2.rdQLenPdf::18                 11397                       # What read queue length does an incoming req see
system.mem_ctrls2.rdQLenPdf::19                 10397                       # What read queue length does an incoming req see
system.mem_ctrls2.rdQLenPdf::20                  9693                       # What read queue length does an incoming req see
system.mem_ctrls2.rdQLenPdf::21                  8969                       # What read queue length does an incoming req see
system.mem_ctrls2.rdQLenPdf::22                  8450                       # What read queue length does an incoming req see
system.mem_ctrls2.rdQLenPdf::23                  7834                       # What read queue length does an incoming req see
system.mem_ctrls2.rdQLenPdf::24                  7504                       # What read queue length does an incoming req see
system.mem_ctrls2.rdQLenPdf::25                  7063                       # What read queue length does an incoming req see
system.mem_ctrls2.rdQLenPdf::26                  6539                       # What read queue length does an incoming req see
system.mem_ctrls2.rdQLenPdf::27                  6499                       # What read queue length does an incoming req see
system.mem_ctrls2.rdQLenPdf::28                  6058                       # What read queue length does an incoming req see
system.mem_ctrls2.rdQLenPdf::29                  6000                       # What read queue length does an incoming req see
system.mem_ctrls2.rdQLenPdf::30                  6160                       # What read queue length does an incoming req see
system.mem_ctrls2.rdQLenPdf::31                113362                       # What read queue length does an incoming req see
system.mem_ctrls2.wrQLenPdf::0                  42179                       # What write queue length does an incoming req see
system.mem_ctrls2.wrQLenPdf::1                  45602                       # What write queue length does an incoming req see
system.mem_ctrls2.wrQLenPdf::2                  47741                       # What write queue length does an incoming req see
system.mem_ctrls2.wrQLenPdf::3                  49387                       # What write queue length does an incoming req see
system.mem_ctrls2.wrQLenPdf::4                  50927                       # What write queue length does an incoming req see
system.mem_ctrls2.wrQLenPdf::5                  18808                       # What write queue length does an incoming req see
system.mem_ctrls2.wrQLenPdf::6                  19385                       # What write queue length does an incoming req see
system.mem_ctrls2.wrQLenPdf::7                  37304                       # What write queue length does an incoming req see
system.mem_ctrls2.bytesPerActivate::samples       299147                       # Bytes accessed per row activation
system.mem_ctrls2.bytesPerActivate::mean   217.247681                       # Bytes accessed per row activation
system.mem_ctrls2.bytesPerActivate::gmean   163.810637                       # Bytes accessed per row activation
system.mem_ctrls2.bytesPerActivate::stdev   167.178980                       # Bytes accessed per row activation
system.mem_ctrls2.bytesPerActivate::0-127        92802     31.02%     31.02% # Bytes accessed per row activation
system.mem_ctrls2.bytesPerActivate::128-255        85937     28.73%     59.75% # Bytes accessed per row activation
system.mem_ctrls2.bytesPerActivate::256-383        73729     24.65%     84.40% # Bytes accessed per row activation
system.mem_ctrls2.bytesPerActivate::384-511        21442      7.17%     91.56% # Bytes accessed per row activation
system.mem_ctrls2.bytesPerActivate::512-639        16592      5.55%     97.11% # Bytes accessed per row activation
system.mem_ctrls2.bytesPerActivate::640-767         4069      1.36%     98.47% # Bytes accessed per row activation
system.mem_ctrls2.bytesPerActivate::768-895         2405      0.80%     99.27% # Bytes accessed per row activation
system.mem_ctrls2.bytesPerActivate::896-1023         1603      0.54%     99.81% # Bytes accessed per row activation
system.mem_ctrls2.bytesPerActivate::1024-1151          568      0.19%    100.00% # Bytes accessed per row activation
system.mem_ctrls2.bytesPerActivate::total       299147                       # Bytes accessed per row activation
system.mem_ctrls2.rdPerTurnAround::samples        44654                       # Reads before turning the bus around for writes
system.mem_ctrls2.rdPerTurnAround::mean     15.768307                       # Reads before turning the bus around for writes
system.mem_ctrls2.rdPerTurnAround::stdev    36.140059                       # Reads before turning the bus around for writes
system.mem_ctrls2.rdPerTurnAround::0-127        44351     99.32%     99.32% # Reads before turning the bus around for writes
system.mem_ctrls2.rdPerTurnAround::128-255          208      0.47%     99.79% # Reads before turning the bus around for writes
system.mem_ctrls2.rdPerTurnAround::256-383           46      0.10%     99.89% # Reads before turning the bus around for writes
system.mem_ctrls2.rdPerTurnAround::384-511           17      0.04%     99.93% # Reads before turning the bus around for writes
system.mem_ctrls2.rdPerTurnAround::512-639            6      0.01%     99.94% # Reads before turning the bus around for writes
system.mem_ctrls2.rdPerTurnAround::640-767            9      0.02%     99.96% # Reads before turning the bus around for writes
system.mem_ctrls2.rdPerTurnAround::768-895            3      0.01%     99.97% # Reads before turning the bus around for writes
system.mem_ctrls2.rdPerTurnAround::896-1023            5      0.01%     99.98% # Reads before turning the bus around for writes
system.mem_ctrls2.rdPerTurnAround::1024-1151            4      0.01%     99.99% # Reads before turning the bus around for writes
system.mem_ctrls2.rdPerTurnAround::1152-1279            3      0.01%    100.00% # Reads before turning the bus around for writes
system.mem_ctrls2.rdPerTurnAround::1408-1535            1      0.00%    100.00% # Reads before turning the bus around for writes
system.mem_ctrls2.rdPerTurnAround::2816-2943            1      0.00%    100.00% # Reads before turning the bus around for writes
system.mem_ctrls2.rdPerTurnAround::total        44654                       # Reads before turning the bus around for writes
system.mem_ctrls2.wrPerTurnAround::samples        44654                       # Writes before turning the bus around for reads
system.mem_ctrls2.wrPerTurnAround::mean      6.972074                       # Writes before turning the bus around for reads
system.mem_ctrls2.wrPerTurnAround::gmean     6.357285                       # Writes before turning the bus around for reads
system.mem_ctrls2.wrPerTurnAround::stdev     3.491617                       # Writes before turning the bus around for reads
system.mem_ctrls2.wrPerTurnAround::4-7          33235     74.43%     74.43% # Writes before turning the bus around for reads
system.mem_ctrls2.wrPerTurnAround::8-11          4975     11.14%     85.57% # Writes before turning the bus around for reads
system.mem_ctrls2.wrPerTurnAround::12-15         3408      7.63%     93.20% # Writes before turning the bus around for reads
system.mem_ctrls2.wrPerTurnAround::16-19         3036      6.80%    100.00% # Writes before turning the bus around for reads
system.mem_ctrls2.wrPerTurnAround::total        44654                       # Writes before turning the bus around for reads
system.mem_ctrls2.totQLat                 87150415018                       # Total ticks spent queuing
system.mem_ctrls2.totMemAccLat           100352758768                       # Total ticks spent from burst creation until serviced by the DRAM
system.mem_ctrls2.totBusLat                3520625000                       # Total ticks spent in databus transfers
system.mem_ctrls2.avgQLat                   123771.23                       # Average queueing delay per DRAM burst
system.mem_ctrls2.avgBusLat                   5000.00                       # Average bus latency per DRAM burst
system.mem_ctrls2.avgMemAccLat              142521.23                       # Average memory access latency per DRAM burst
system.mem_ctrls2.avgRdBW                      376.09                       # Average DRAM read bandwidth in MiByte/s
system.mem_ctrls2.avgWrBW                      166.29                       # Average achieved write bandwidth in MiByte/s
system.mem_ctrls2.avgRdBWSys                   376.21                       # Average system read bandwidth in MiByte/s
system.mem_ctrls2.avgWrBWSys                   166.29                       # Average system write bandwidth in MiByte/s
system.mem_ctrls2.peakBW                     12800.00                       # Theoretical peak bandwidth in MiByte/s
system.mem_ctrls2.busUtil                        4.24                       # Data bus utilization in percentage
system.mem_ctrls2.busUtilRead                    2.94                       # Data bus utilization in percentage for reads
system.mem_ctrls2.busUtilWrite                   1.30                       # Data bus utilization in percentage for writes
system.mem_ctrls2.avgRdQLen                      1.98                       # Average read queue length when enqueuing
system.mem_ctrls2.avgWrQLen                      3.05                       # Average write queue length when enqueuing
system.mem_ctrls2.readRowHits                  537929                       # Number of row buffer hits during reads
system.mem_ctrls2.writeRowHits                 178378                       # Number of row buffer hits during writes
system.mem_ctrls2.readRowHitRate                76.40                       # Row buffer hit rate for reads
system.mem_ctrls2.writeRowHitRate               57.29                       # Row buffer hit rate for writes
system.mem_ctrls2.avgGap                    117972.35                       # Average gap between requests
system.mem_ctrls2.pageHitRate                   70.54                       # Row buffer hit rate, read and write combined
system.mem_ctrls2.memoryStateTime::IDLE   20836009750                       # Time in different power states
system.mem_ctrls2.memoryStateTime::REF     4001140000                       # Time in different power states
system.mem_ctrls2.memoryStateTime::PRE_PDN            0                       # Time in different power states
system.mem_ctrls2.memoryStateTime::ACT    94985725250                       # Time in different power states
system.mem_ctrls2.memoryStateTime::ACT_PDN            0                       # Time in different power states
system.mem_ctrls2.actEnergy::0             1139775840                       # Energy for activate commands per rank (pJ)
system.mem_ctrls2.actEnergy::1             1121775480                       # Energy for activate commands per rank (pJ)
system.mem_ctrls2.preEnergy::0              621901500                       # Energy for precharge commands per rank (pJ)
system.mem_ctrls2.preEnergy::1              612079875                       # Energy for precharge commands per rank (pJ)
system.mem_ctrls2.readEnergy::0            2756941200                       # Energy for read commands per rank (pJ)
system.mem_ctrls2.readEnergy::1            2735210400                       # Energy for read commands per rank (pJ)
system.mem_ctrls2.writeEnergy::0           1013089680                       # Energy for write commands per rank (pJ)
system.mem_ctrls2.writeEnergy::1           1004335200                       # Energy for write commands per rank (pJ)
system.mem_ctrls2.refreshEnergy::0         7826229840                       # Energy for refresh commands per rank (pJ)
system.mem_ctrls2.refreshEnergy::1         7826229840                       # Energy for refresh commands per rank (pJ)
system.mem_ctrls2.actBackEnergy::0        48475264680                       # Energy for active background per rank (pJ)
system.mem_ctrls2.actBackEnergy::1        47963876355                       # Energy for active background per rank (pJ)
system.mem_ctrls2.preBackEnergy::0        29371554750                       # Energy for precharge background per rank (pJ)
system.mem_ctrls2.preBackEnergy::1        29820141000                       # Energy for precharge background per rank (pJ)
system.mem_ctrls2.totalEnergy::0          91204757490                       # Total energy per rank (pJ)
system.mem_ctrls2.totalEnergy::1          91083648150                       # Total energy per rank (pJ)
system.mem_ctrls2.averagePower::0          761.163242                       # Core power per rank (mW)
system.mem_ctrls2.averagePower::1          760.152505                       # Core power per rank (mW)
system.mem_ctrls3.bytes_read::ruby.dir_cntrl3     45039936                       # Number of bytes read from this memory
system.mem_ctrls3.bytes_read::total          45039936                       # Number of bytes read from this memory
system.mem_ctrls3.bytes_written::ruby.dir_cntrl3     19910720                       # Number of bytes written to this memory
system.mem_ctrls3.bytes_written::total       19910720                       # Number of bytes written to this memory
system.mem_ctrls3.num_reads::ruby.dir_cntrl3       703749                       # Number of read requests responded to by this memory
system.mem_ctrls3.num_reads::total             703749                       # Number of read requests responded to by this memory
system.mem_ctrls3.num_writes::ruby.dir_cntrl3       311105                       # Number of write requests responded to by this memory
system.mem_ctrls3.num_writes::total            311105                       # Number of write requests responded to by this memory
system.mem_ctrls3.bw_read::ruby.dir_cntrl3    375885284                       # Total read bandwidth from this memory (bytes/s)
system.mem_ctrls3.bw_read::total            375885284                       # Total read bandwidth from this memory (bytes/s)
system.mem_ctrls3.bw_write::ruby.dir_cntrl3    166166902                       # Write bandwidth from this memory (bytes/s)
system.mem_ctrls3.bw_write::total           166166902                       # Write bandwidth from this memory (bytes/s)
system.mem_ctrls3.bw_total::ruby.dir_cntrl3    542052186                       # Total bandwidth to/from this memory (bytes/s)
system.mem_ctrls3.bw_total::total           542052186                       # Total bandwidth to/from this memory (bytes/s)
system.mem_ctrls3.readReqs                     703750                       # Number of read requests accepted
system.mem_ctrls3.writeReqs                    311105                       # Number of write requests accepted
system.mem_ctrls3.readBursts                   703750                       # Number of DRAM read bursts, including those serviced by the write queue
system.mem_ctrls3.writeBursts                  311105                       # Number of DRAM write bursts, including those merged in the write queue
system.mem_ctrls3.bytesReadDRAM              45025216                       # Total number of bytes read from DRAM
system.mem_ctrls3.bytesReadWrQ                  14784                       # Total number of bytes read from write queue
system.mem_ctrls3.bytesWritten               19910656                       # Total number of bytes written to DRAM
system.mem_ctrls3.bytesReadSys               45040000                       # Total read bytes from the system interface side
system.mem_ctrls3.bytesWrittenSys            19910720                       # Total written bytes from the system interface side
system.mem_ctrls3.servicedByWrQ                   231                       # Number of DRAM read bursts serviced by the write queue
system.mem_ctrls3.mergedWrBursts                    0                       # Number of DRAM write bursts merged with an existing one
system.mem_ctrls3.neitherReadNorWriteReqs            0                       # Number of requests that are neither read nor write
system.mem_ctrls3.perBankRdBursts::0            44153                       # Per bank write bursts
system.mem_ctrls3.perBankRdBursts::1            44042                       # Per bank write bursts
system.mem_ctrls3.perBankRdBursts::2            43827                       # Per bank write bursts
system.mem_ctrls3.perBankRdBursts::3            43908                       # Per bank write bursts
system.mem_ctrls3.perBankRdBursts::4            43860                       # Per bank write bursts
system.mem_ctrls3.perBankRdBursts::5            43741                       # Per bank write bursts
system.mem_ctrls3.perBankRdBursts::6            45374                       # Per bank write bursts
system.mem_ctrls3.perBankRdBursts::7            44054                       # Per bank write bursts
system.mem_ctrls3.perBankRdBursts::8            43543                       # Per bank write bursts
system.mem_ctrls3.perBankRdBursts::9            43711                       # Per bank write bursts
system.mem_ctrls3.perBankRdBursts::10           43729                       # Per bank write bursts
system.mem_ctrls3.perBankRdBursts::11           43783                       # Per bank write bursts
system.mem_ctrls3.perBankRdBursts::12           43629                       # Per bank write bursts
system.mem_ctrls3.perBankRdBursts::13           43440                       # Per bank write bursts
system.mem_ctrls3.perBankRdBursts::14           44662                       # Per bank write bursts
system.mem_ctrls3.perBankRdBursts::15           44063                       # Per bank write bursts
system.mem_ctrls3.perBankWrBursts::0            19331                       # Per bank write bursts
system.mem_ctrls3.perBankWrBursts::1            19459                       # Per bank write bursts
system.mem_ctrls3.perBankWrBursts::2            19567                       # Per bank write bursts
system.mem_ctrls3.perBankWrBursts::3            19564                       # Per bank write bursts
system.mem_ctrls3.perBankWrBursts::4            19594                       # Per bank write bursts
system.mem_ctrls3.perBankWrBursts::5            19550                       # Per bank write bursts
system.mem_ctrls3.perBankWrBursts::6            19596                       # Per bank write bursts
system.mem_ctrls3.perBankWrBursts::7            19561                       # Per bank write bursts
system.mem_ctrls3.perBankWrBursts::8            19239                       # Per bank write bursts
system.mem_ctrls3.perBankWrBursts::9            19467                       # Per bank write bursts
system.mem_ctrls3.perBankWrBursts::10           19340                       # Per bank write bursts
system.mem_ctrls3.perBankWrBursts::11           19366                       # Per bank write bursts
system.mem_ctrls3.perBankWrBursts::12           19434                       # Per bank write bursts
system.mem_ctrls3.perBankWrBursts::13           19277                       # Per bank write bursts
system.mem_ctrls3.perBankWrBursts::14           19408                       # Per bank write bursts
system.mem_ctrls3.perBankWrBursts::15           19351                       # Per bank write bursts
system.mem_ctrls3.numRdRetry                   105789                       # Number of times read queue was full causing retry
system.mem_ctrls3.numWrRetry                    21568                       # Number of times write queue was full causing retry
system.mem_ctrls3.totGap                 119822878000                       # Total gap between requests
system.mem_ctrls3.readPktSize::0                    0                       # Read request sizes (log2)
system.mem_ctrls3.readPktSize::1                    0                       # Read request sizes (log2)
system.mem_ctrls3.readPktSize::2                    0                       # Read request sizes (log2)
system.mem_ctrls3.readPktSize::3                    0                       # Read request sizes (log2)
system.mem_ctrls3.readPktSize::4                    0                       # Read request sizes (log2)
system.mem_ctrls3.readPktSize::5                    0                       # Read request sizes (log2)
system.mem_ctrls3.readPktSize::6               703750                       # Read request sizes (log2)
system.mem_ctrls3.writePktSize::0                   0                       # Write request sizes (log2)
system.mem_ctrls3.writePktSize::1                   0                       # Write request sizes (log2)
system.mem_ctrls3.writePktSize::2                   0                       # Write request sizes (log2)
system.mem_ctrls3.writePktSize::3                   0                       # Write request sizes (log2)
system.mem_ctrls3.writePktSize::4                   0                       # Write request sizes (log2)
system.mem_ctrls3.writePktSize::5                   0                       # Write request sizes (log2)
system.mem_ctrls3.writePktSize::6              311105                       # Write request sizes (log2)
[...]
system.ruby.L2Cache_Controller.MT_MB.L2_Replacement_clean::total            2                      
system.ruby.L2Cache_Controller.MT_MB.Exclusive_Unblock |      212854      5.30%      5.30% |      122620      3.05%      8.35% |      121561      3.02%     11.37% |      123646      3.08%     14.45% |      121927      3.03%     17.48% |      121023      3.01%     20.49% |      121156      3.01%     23.51% |      120622      3.00%     26.51% |      120896      3.01%     29.51% |      121416      3.02%     32.54% |      123502      3.07%     35.61% |      122518      3.05%     38.66% |      121665      3.03%     41.68% |      121974      3.03%     44.72% |      120672      3.00%     47.72% |      120582      3.00%     50.72% |      121459      3.02%     53.74% |      121263      3.02%     56.76% |      121633      3.03%     59.78% |      121825      3.03%     62.82% |      122205      3.04%     65.86% |      136470      3.40%     69.25% |      130075      3.24%     72.49% |      120718      3.00%     75.49% |      121207      3.02%     78.51% |      121423      3.02%     81.53% |      121105      3.01%     84.54% |      120815      3.01%     87.55% |      122358      3.04%     90.59% |      121300      3.02%     93.61% |      124956      3.11%     96.72% |      131972      3.28%    100.00%
system.ruby.L2Cache_Controller.MT_MB.Exclusive_Unblock::total      4019418                      
system.ruby.L2Cache_Controller.MT_IIB.L1_GETS |          17      6.32%      6.32% |           6      2.23%      8.55% |          23      8.55%     17.10% |          10      3.72%     20.82% |          10      3.72%     24.54% |           4      1.49%     26.02% |          15      5.58%     31.60% |           8      2.97%     34.57% |          14      5.20%     39.78% |           6      2.23%     42.01% |          17      6.32%     48.33% |           5      1.86%     50.19% |           6      2.23%     52.42% |           4      1.49%     53.90% |          14      5.20%     59.11% |           6      2.23%     61.34% |           7      2.60%     63.94% |           2      0.74%     64.68% |           8      2.97%     67.66% |           1      0.37%     68.03% |          11      4.09%     72.12% |           3      1.12%     73.23% |          10      3.72%     76.95% |           5      1.86%     78.81% |           8      2.97%     81.78% |           3      1.12%     82.90% |          14      5.20%     88.10% |           7      2.60%     90.71% |           7      2.60%     93.31% |           2      0.74%     94.05% |           8      2.97%     97.03% |           8      2.97%    100.00%
system.ruby.L2Cache_Controller.MT_IIB.L1_GETS::total          269                      
system.ruby.L2Cache_Controller.MT_IIB.L1_PUTX |          20      3.10%      3.10% |          16      2.48%      5.57% |          21      3.25%      8.82% |          14      2.17%     10.99% |          25      3.87%     14.86% |          21      3.25%     18.11% |          20      3.10%     21.21% |          19      2.94%     24.15% |          23      3.56%     27.71% |          13      2.01%     29.72% |          22      3.41%     33.13% |          22      3.41%     36.53% |          19      2.94%     39.47% |          24      3.72%     43.19% |          25      3.87%     47.06% |          21      3.25%     50.31% |          20      3.10%     53.41% |          15      2.32%     55.73% |          19      2.94%     58.67% |          11      1.70%     60.37% |          15      2.32%     62.69% |          26      4.02%     66.72% |          25      3.87%     70.59% |          21      3.25%     73.84% |          25      3.87%     77.71% |          21      3.25%     80.96% |          23      3.56%     84.52% |           8      1.24%     85.76% |          12      1.86%     87.62% |          25      3.87%     91.49% |          35      5.42%     96.90% |          20      3.10%    100.00%
system.ruby.L2Cache_Controller.MT_IIB.L1_PUTX::total          646                      
system.ruby.L2Cache_Controller.MT_IIB.WB_Data |           0      0.00%      0.00% |           0      0.00%      0.00% |           0      0.00%      0.00% |           0      0.00%      0.00% |           0      0.00%      0.00% |           0      0.00%      0.00% |           0      0.00%      0.00% |           0      0.00%      0.00% |           0      0.00%      0.00% |           0      0.00%      0.00% |           0      0.00%      0.00% |           0      0.00%      0.00% |           0      0.00%      0.00% |           0      0.00%      0.00% |           0      0.00%      0.00% |           0      0.00%      0.00% |           0      0.00%      0.00% |           0      0.00%      0.00% |           0      0.00%      0.00% |           0      0.00%      0.00% |           0      0.00%      0.00% |           2     40.00%     40.00% |           0      0.00%     40.00% |           0      0.00%     40.00% |           0      0.00%     40.00% |           0      0.00%     40.00% |           1     20.00%     60.00% |           0      0.00%     60.00% |           0      0.00%     60.00% |           0      0.00%     60.00% |           0      0.00%     60.00% |           2     40.00%    100.00%
system.ruby.L2Cache_Controller.MT_IIB.WB_Data::total            5                      
system.ruby.L2Cache_Controller.MT_IIB.WB_Data_clean |        1987      3.38%      3.38% |        1963      3.34%      6.72% |        2073      3.53%     10.24% |        2095      3.56%     13.81% |        2072      3.52%     17.33% |        2129      3.62%     20.95% |        2068      3.52%     24.47% |        2039      3.47%     27.93% |        1817      3.09%     31.02% |        1695      2.88%     33.91% |        1779      3.03%     36.93% |        1853      3.15%     40.08% |        1933      3.29%     43.37% |        1967      3.35%     46.72% |        1764      3.00%     49.72% |        1794      3.05%     52.77% |        1792      3.05%     55.82% |        1715      2.92%     58.73% |        1827      3.11%     61.84% |        1748      2.97%     64.81% |        1692      2.88%     67.69% |        1696      2.88%     70.57% |        1701      2.89%     73.47% |        1560      2.65%     76.12% |        1756      2.99%     79.11% |        1699      2.89%     82.00% |        1749      2.97%     84.97% |        1743      2.96%     87.93% |        1732      2.95%     90.88% |        1799      3.06%     93.94% |        1766      3.00%     96.94% |        1798      3.06%    100.00%
system.ruby.L2Cache_Controller.MT_IIB.WB_Data_clean::total        58801                      
system.ruby.L2Cache_Controller.MT_IIB.Unblock |          82      1.76%      1.76% |          78      1.67%      3.43% |         110      2.36%      5.79% |          87      1.86%      7.65% |         140      3.00%     10.65% |          92      1.97%     12.62% |         122      2.61%     15.23% |          96      2.06%     17.29% |         218      4.67%     21.96% |         172      3.69%     25.65% |         246      5.27%     30.92% |         183      3.92%     34.84% |         138      2.96%     37.80% |         157      3.36%     41.16% |         330      7.07%     48.23% |         195      4.18%     52.41% |         153      3.28%     55.69% |         110      2.36%     58.05% |          73      1.56%     59.61% |         135      2.89%     62.50% |         182      3.90%     66.40% |         165      3.54%     69.94% |         202      4.33%     74.27% |         206      4.41%     78.68% |         115      2.46%     81.14% |         116      2.49%     83.63% |         140      3.00%     86.63% |         144      3.09%     89.72% |         131      2.81%     92.52% |         136      2.91%     95.44% |         146      3.13%     98.56% |          67      1.44%    100.00%
system.ruby.L2Cache_Controller.MT_IIB.Unblock::total         4667                      
system.ruby.L2Cache_Controller.MT_IB.L1_PUTX |           0      0.00%      0.00% |           0      0.00%      0.00% |           0      0.00%      0.00% |           0      0.00%      0.00% |           0      0.00%      0.00% |           0      0.00%      0.00% |           0      0.00%      0.00% |           0      0.00%      0.00% |           0      0.00%      0.00% |           0      0.00%      0.00% |           0      0.00%      0.00% |           0      0.00%      0.00% |           0      0.00%      0.00% |           1     50.00%     50.00% |           0      0.00%     50.00% |           0      0.00%     50.00% |           0      0.00%     50.00% |           0      0.00%     50.00% |           0      0.00%     50.00% |           0      0.00%     50.00% |           0      0.00%     50.00% |           0      0.00%     50.00% |           0      0.00%     50.00% |           0      0.00%     50.00% |           1     50.00%    100.00% |           0      0.00%    100.00% |           0      0.00%    100.00% |           0      0.00%    100.00% |           0      0.00%    100.00% |           0      0.00%    100.00% |           0      0.00%    100.00% |           0      0.00%    100.00%
system.ruby.L2Cache_Controller.MT_IB.L1_PUTX::total            2                      
system.ruby.L2Cache_Controller.MT_IB.WB_Data_clean |          82      1.76%      1.76% |          78      1.67%      3.43% |         110      2.36%      5.79% |          87      1.86%      7.65% |         140      3.00%     10.65% |          92      1.97%     12.62% |         122      2.61%     15.23% |          96      2.06%     17.29% |         218      4.67%     21.96% |         172      3.69%     25.65% |         246      5.27%     30.92% |         183      3.92%     34.84% |         138      2.96%     37.80% |         157      3.36%     41.16% |         330      7.07%     48.23% |         195      4.18%     52.41% |         153      3.28%     55.69% |         110      2.36%     58.05% |          73      1.56%     59.61% |         135      2.89%     62.50% |         182      3.90%     66.40% |         165      3.54%     69.94% |         202      4.33%     74.27% |         206      4.41%     78.68% |         115      2.46%     81.14% |         116      2.49%     83.63% |         140      3.00%     86.63% |         144      3.09%     89.72% |         131      2.81%     92.52% |         136      2.91%     95.44% |         146      3.13%     98.56% |          67      1.44%    100.00%
system.ruby.L2Cache_Controller.MT_IB.WB_Data_clean::total         4667                      
system.ruby.L2Cache_Controller.MT_SB.L1_GETS |           2      5.71%      5.71% |           1      2.86%      8.57% |           0      0.00%      8.57% |           2      5.71%     14.29% |           0      0.00%     14.29% |           1      2.86%     17.14% |           1      2.86%     20.00% |           0      0.00%     20.00% |           0      0.00%     20.00% |           0      0.00%     20.00% |           4     11.43%     31.43% |           4     11.43%     42.86% |           4     11.43%     54.29% |           0      0.00%     54.29% |           1      2.86%     57.14% |           0      0.00%     57.14% |           0      0.00%     57.14% |           1      2.86%     60.00% |           2      5.71%     65.71% |           0      0.00%     65.71% |           1      2.86%     68.57% |           0      0.00%     68.57% |           1      2.86%     71.43% |           0      0.00%     71.43% |           0      0.00%     71.43% |           1      2.86%     74.29% |           0      0.00%     74.29% |           1      2.86%     77.14% |           3      8.57%     85.71% |           1      2.86%     88.57% |           2      5.71%     94.29% |           2      5.71%    100.00%
system.ruby.L2Cache_Controller.MT_SB.L1_GETS::total           35                      
system.ruby.L2Cache_Controller.MT_SB.L1_PUTX |           1      2.04%      2.04% |           1      2.04%      4.08% |           2      4.08%      8.16% |           3      6.12%     14.29% |           2      4.08%     18.37% |           2      4.08%     22.45% |           1      2.04%     24.49% |           2      4.08%     28.57% |           0      0.00%     28.57% |           0      0.00%     28.57% |           3      6.12%     34.69% |           1      2.04%     36.73% |           0      0.00%     36.73% |           1      2.04%     38.78% |           1      2.04%     40.82% |           2      4.08%     44.90% |           1      2.04%     46.94% |           1      2.04%     48.98% |           1      2.04%     51.02% |           2      4.08%     55.10% |           1      2.04%     57.14% |           5     10.20%     67.35% |           3      6.12%     73.47% |           3      6.12%     79.59% |           1      2.04%     81.63% |           0      0.00%     81.63% |           5     10.20%     91.84% |           1      2.04%     93.88% |           2      4.08%     97.96% |           1      2.04%    100.00% |           0      0.00%    100.00% |           0      0.00%    100.00%
system.ruby.L2Cache_Controller.MT_SB.L1_PUTX::total           49                      
system.ruby.L2Cache_Controller.MT_SB.Unblock |        1987      3.38%      3.38% |        1963      3.34%      6.72% |        2073      3.53%     10.24% |        2095      3.56%     13.80% |        2072      3.52%     17.33% |        2129      3.62%     20.95% |        2068      3.52%     24.47% |        2039      3.47%     27.93% |        1817      3.09%     31.02% |        1695      2.88%     33.90% |        1779      3.03%     36.93% |        1853      3.15%     40.08% |        1933      3.29%     43.37% |        1967      3.34%     46.71% |        1764      3.00%     49.71% |        1794      3.05%     52.76% |        1792      3.05%     55.81% |        1715      2.92%     58.73% |        1827      3.11%     61.83% |        1748      2.97%     64.81% |        1692      2.88%     67.68% |        1698      2.89%     70.57% |        1701      2.89%     73.46% |        1560      2.65%     76.12% |        1756      2.99%     79.10% |        1699      2.89%     81.99% |        1750      2.98%     84.97% |        1743      2.96%     87.93% |        1732      2.95%     90.88% |        1799      3.06%     93.94% |        1766      3.00%     96.94% |        1800      3.06%    100.00%
system.ruby.L2Cache_Controller.MT_SB.Unblock::total        58806                      
system.ruby.SimicsNetworkPortInterface_Controller.MessageSend |      398672     20.40%     20.40% |      977138     50.00%     70.40% |       35697      1.83%     72.23% |       36351      1.86%     74.09% |       36009      1.84%     75.93% |       36612      1.87%     77.80% |       36481      1.87%     79.67% |       37279      1.91%     81.58% |       36287      1.86%     83.43% |       35950      1.84%     85.27% |       35616      1.82%     87.10% |       35579      1.82%     88.92% |       36169      1.85%     90.77% |       35861      1.84%     92.60% |       35417      1.81%     94.41% |       36046      1.84%     96.26% |       36264      1.86%     98.11% |       36848      1.89%    100.00% |           0      0.00%    100.00% |           0      0.00%    100.00% |           0      0.00%    100.00% |           0      0.00%    100.00% |           0      0.00%    100.00% |           0      0.00%    100.00% |           0      0.00%    100.00% |           0      0.00%    100.00% |           0      0.00%    100.00% |           0      0.00%    100.00% |           0      0.00%    100.00% |           0      0.00%    100.00% |           0      0.00%    100.00% |           0      0.00%    100.00%
system.ruby.SimicsNetworkPortInterface_Controller.MessageSend::total      1954276                      
system.ruby.SimicsNetworkPortInterface_Controller.MessageRecv |      398672     20.40%     20.40% |      977138     50.00%     70.40% |       35697      1.83%     72.23% |       36351      1.86%     74.09% |       36009      1.84%     75.93% |       36612      1.87%     77.80% |       36481      1.87%     79.67% |       37279      1.91%     81.58% |       36287      1.86%     83.43% |       35950      1.84%     85.27% |       35616      1.82%     87.10% |       35579      1.82%     88.92% |       36169      1.85%     90.77% |       35861      1.84%     92.60% |       35417      1.81%     94.41% |       36046      1.84%     96.26% |       36264      1.86%     98.11% |       36848      1.89%    100.00% |           0      0.00%    100.00% |           0      0.00%    100.00% |           0      0.00%    100.00% |           0      0.00%    100.00% |           0      0.00%    100.00% |           0      0.00%    100.00% |           0      0.00%    100.00% |           0      0.00%    100.00% |           0      0.00%    100.00% |           0      0.00%    100.00% |           0      0.00%    100.00% |           0      0.00%    100.00% |           0      0.00%    100.00% |           0      0.00%    100.00%
system.ruby.SimicsNetworkPortInterface_Controller.MessageRecv::total      1954276                      
system.ruby.SimicsNetworkPortInterface_Controller.A.MessageSend |      398672     20.40%     20.40% |      977138     50.00%     70.40% |       35697      1.83%     72.23% |       36351      1.86%     74.09% |       36009      1.84%     75.93% |       36612      1.87%     77.80% |       36481      1.87%     79.67% |       37279      1.91%     81.58% |       36287      1.86%     83.43% |       35950      1.84%     85.27% |       35616      1.82%     87.10% |       35579      1.82%     88.92% |       36169      1.85%     90.77% |       35861      1.84%     92.60% |       35417      1.81%     94.41% |       36046      1.84%     96.26% |       36264      1.86%     98.11% |       36848      1.89%    100.00% |           0      0.00%    100.00% |           0      0.00%    100.00% |           0      0.00%    100.00% |           0      0.00%    100.00% |           0      0.00%    100.00% |           0      0.00%    100.00% |           0      0.00%    100.00% |           0      0.00%    100.00% |           0      0.00%    100.00% |           0      0.00%    100.00% |           0      0.00%    100.00% |           0      0.00%    100.00% |           0      0.00%    100.00% |           0      0.00%    100.00%
system.ruby.SimicsNetworkPortInterface_Controller.A.MessageSend::total      1954276                      
system.ruby.SimicsNetworkPortInterface_Controller.A.MessageRecv |      398672     20.40%     20.40% |      977138     50.00%     70.40% |       35697      1.83%     72.23% |       36351      1.86%     74.09% |       36009      1.84%     75.93% |       36612      1.87%     77.80% |       36481      1.87%     79.67% |       37279      1.91%     81.58% |       36287      1.86%     83.43% |       35950      1.84%     85.27% |       35616      1.82%     87.10% |       35579      1.82%     88.92% |       36169      1.85%     90.77% |       35861      1.84%     92.60% |       35417      1.81%     94.41% |       36046      1.84%     96.26% |       36264      1.86%     98.11% |       36848      1.89%    100.00% |           0      0.00%    100.00% |           0      0.00%    100.00% |           0      0.00%    100.00% |           0      0.00%    100.00% |           0      0.00%    100.00% |           0      0.00%    100.00% |           0      0.00%    100.00% |           0      0.00%    100.00% |           0      0.00%    100.00% |           0      0.00%    100.00% |           0      0.00%    100.00% |           0      0.00%    100.00% |           0      0.00%    100.00% |           0      0.00%    100.00%
system.ruby.SimicsNetworkPortInterface_Controller.A.MessageRecv::total      1954276                      
system.switch_cpus.kern.inst.arm                    0                       # number of arm instructions executed
system.switch_cpus.kern.inst.quiesce                0                       # number of quiesce instructions executed

---------- End Simulation Statistics   ----------
