
---------- Begin Simulation Statistics ----------
sim_seconds                                  0.130757                       # Number of seconds simulated
sim_ticks                                130756625000                       # Number of ticks simulated
final_tick                               5306924703500                       # Number of ticks from beginning of simulation (restored from checkpoints and never reset)
sim_freq                                 1000000000000                       # Frequency of simulated ticks
host_inst_rate                                  33080                       # Simulator instruction rate (inst/s)
host_op_rate                                    57101                       # Simulator op (including micro ops) rate (op/s)
host_tick_rate                              101115010                       # Simulator tick rate (ticks/s)
host_mem_usage                                3748576                       # Number of bytes of host memory used
host_seconds                                  1293.15                       # Real time elapsed on the host
sim_insts                                    42777047                       # Number of instructions simulated
sim_ops                                      73840253                       # Number of ops (including micro ops) simulated
system.voltage_domain.voltage                       1                       # Voltage in Volts
system.clk_domain.clock                           500                       # Clock period in ticks
system.mem_ctrls0.bytes_read::ruby.dir_cntrl0     21548864                       # Number of bytes read from this memory
system.mem_ctrls0.bytes_read::total          21548864                       # Number of bytes read from this memory
system.mem_ctrls0.bytes_written::ruby.dir_cntrl0     13565568                       # Number of bytes written to this memory
system.mem_ctrls0.bytes_written::total       13565568                       # Number of bytes written to this memory
system.mem_ctrls0.num_reads::ruby.dir_cntrl0       336701                       # Number of read requests responded to by this memory
system.mem_ctrls0.num_reads::total             336701                       # Number of read requests responded to by this memory
system.mem_ctrls0.num_writes::ruby.dir_cntrl0       211962                       # Number of write requests responded to by this memory
system.mem_ctrls0.num_writes::total            211962                       # Number of write requests responded to by this memory
system.mem_ctrls0.bw_read::ruby.dir_cntrl0    164801317                       # Total read bandwidth from this memory (bytes/s)
system.mem_ctrls0.bw_read::total            164801317                       # Total read bandwidth from this memory (bytes/s)
system.mem_ctrls0.bw_write::ruby.dir_cntrl0    103746697                       # Write bandwidth from this memory (bytes/s)
system.mem_ctrls0.bw_write::total           103746697                       # Write bandwidth from this memory (bytes/s)
system.mem_ctrls0.bw_total::ruby.dir_cntrl0    268548014                       # Total bandwidth to/from this memory (bytes/s)
system.mem_ctrls0.bw_total::total           268548014                       # Total bandwidth to/from this memory (bytes/s)
system.mem_ctrls0.readReqs                     336702                       # Number of read requests accepted
system.mem_ctrls0.writeReqs                    211962                       # Number of write requests accepted
system.mem_ctrls0.readBursts                   336702                       # Number of DRAM read bursts, including those serviced by the write queue
system.mem_ctrls0.writeBursts                  211962                       # Number of DRAM write bursts, including those merged in the write queue
system.mem_ctrls0.bytesReadDRAM              21547712                       # Total number of bytes read from DRAM
system.mem_ctrls0.bytesReadWrQ                   1216                       # Total number of bytes read from write queue
system.mem_ctrls0.bytesWritten               13565504                       # Total number of bytes written to DRAM
system.mem_ctrls0.bytesReadSys               21548928                       # Total read bytes from the system interface side
system.mem_ctrls0.bytesWrittenSys            13565568                       # Total written bytes from the system interface side
system.mem_ctrls0.servicedByWrQ                    19                       # Number of DRAM read bursts serviced by the write queue
system.mem_ctrls0.mergedWrBursts                    0                       # Number of DRAM write bursts merged with an existing one
system.mem_ctrls0.neitherReadNorWriteReqs            0                       # Number of requests that are neither read nor write
system.mem_ctrls0.perBankRdBursts::0            20739                       # Per bank write bursts
system.mem_ctrls0.perBankRdBursts::1            21374                       # Per bank write bursts
system.mem_ctrls0.perBankRdBursts::2            20954                       # Per bank write bursts
system.mem_ctrls0.perBankRdBursts::3            21482                       # Per bank write bursts
system.mem_ctrls0.perBankRdBursts::4            21077                       # Per bank write bursts
system.mem_ctrls0.perBankRdBursts::5            21325                       # Per bank write bursts
system.mem_ctrls0.perBankRdBursts::6            21237                       # Per bank write bursts
system.mem_ctrls0.perBankRdBursts::7            21213                       # Per bank write bursts
system.mem_ctrls0.perBankRdBursts::8            20902                       # Per bank write bursts
system.mem_ctrls0.perBankRdBursts::9            21115                       # Per bank write bursts
system.mem_ctrls0.perBankRdBursts::10           20860                       # Per bank write bursts
system.mem_ctrls0.perBankRdBursts::11           21255                       # Per bank write bursts
system.mem_ctrls0.perBankRdBursts::12           20758                       # Per bank write bursts
system.mem_ctrls0.perBankRdBursts::13           20644                       # Per bank write bursts
system.mem_ctrls0.perBankRdBursts::14           20899                       # Per bank write bursts
system.mem_ctrls0.perBankRdBursts::15           20849                       # Per bank write bursts
system.mem_ctrls0.perBankWrBursts::0            13279                       # Per bank write bursts
system.mem_ctrls0.perBankWrBursts::1            13244                       # Per bank write bursts
system.mem_ctrls0.perBankWrBursts::2            13181                       # Per bank write bursts
system.mem_ctrls0.perBankWrBursts::3            13383                       # Per bank write bursts
system.mem_ctrls0.perBankWrBursts::4            13211                       # Per bank write bursts
system.mem_ctrls0.perBankWrBursts::5            13361                       # Per bank write bursts
system.mem_ctrls0.perBankWrBursts::6            13271                       # Per bank write bursts
system.mem_ctrls0.perBankWrBursts::7            13459                       # Per bank write bursts
system.mem_ctrls0.perBankWrBursts::8            13168                       # Per bank write bursts
system.mem_ctrls0.perBankWrBursts::9            13386                       # Per bank write bursts
system.mem_ctrls0.perBankWrBursts::10           13193                       # Per bank write bursts
system.mem_ctrls0.perBankWrBursts::11           13131                       # Per bank write bursts
system.mem_ctrls0.perBankWrBursts::12           13105                       # Per bank write bursts
system.mem_ctrls0.perBankWrBursts::13           13090                       # Per bank write bursts
system.mem_ctrls0.perBankWrBursts::14           13347                       # Per bank write bursts
system.mem_ctrls0.perBankWrBursts::15           13152                       # Per bank write bursts
system.mem_ctrls0.numRdRetry                    79252                       # Number of times read queue was full causing retry
system.mem_ctrls0.numWrRetry                     2904                       # Number of times write queue was full causing retry
system.mem_ctrls0.totGap                 130756358500                       # Total gap between requests
system.mem_ctrls0.readPktSize::0                    0                       # Read request sizes (log2)
system.mem_ctrls0.readPktSize::1                    0                       # Read request sizes (log2)
system.mem_ctrls0.readPktSize::2                    0                       # Read request sizes (log2)
system.mem_ctrls0.readPktSize::3                    0                       # Read request sizes (log2)
system.mem_ctrls0.readPktSize::4                    0                       # Read request sizes (log2)
system.mem_ctrls0.readPktSize::5                    0                       # Read request sizes (log2)
system.mem_ctrls0.readPktSize::6               336702                       # Read request sizes (log2)
system.mem_ctrls0.writePktSize::0                   0                       # Write request sizes (log2)
system.mem_ctrls0.writePktSize::1                   0                       # Write request sizes (log2)
system.mem_ctrls0.writePktSize::2                   0                       # Write request sizes (log2)
system.mem_ctrls0.writePktSize::3                   0                       # Write request sizes (log2)
system.mem_ctrls0.writePktSize::4                   0                       # Write request sizes (log2)
system.mem_ctrls0.writePktSize::5                   0                       # Write request sizes (log2)
system.mem_ctrls0.writePktSize::6              211962                       # Write request sizes (log2)
system.mem_ctrls0.rdQLenPdf::0                 175789                       # What read queue length does an incoming req see
system.mem_ctrls0.rdQLenPdf::1                   5354                       # What read queue length does an incoming req see
system.mem_ctrls0.rdQLenPdf::2                   2859                       # What read queue length does an incoming req see
system.mem_ctrls0.rdQLenPdf::3                   1687                       # What read queue length does an incoming req see
system.mem_ctrls0.rdQLenPdf::4                   1931                       # What read queue length does an incoming req see
system.mem_ctrls0.rdQLenPdf::5                   2258                       # What read queue length does an incoming req see
system.mem_ctrls0.rdQLenPdf::6                   2512                       # What read queue length does an incoming req see
system.mem_ctrls0.rdQLenPdf::7                   2620                       # What read queue length does an incoming req see
system.mem_ctrls0.rdQLenPdf::8                   2853                       # What read queue length does an incoming req see
system.mem_ctrls0.rdQLenPdf::9                   2958                       # What read queue length does an incoming req see
system.mem_ctrls0.rdQLenPdf::10                  2967                       # What read queue length does an incoming req see
system.mem_ctrls0.rdQLenPdf::11                  3026                       # What read queue length does an incoming req see
system.mem_ctrls0.rdQLenPdf::12                  2993                       # What read queue length does an incoming req see
system.mem_ctrls0.rdQLenPdf::13                  2889                       # What read queue length does an incoming req see
system.mem_ctrls0.rdQLenPdf::14                  2882                       # What read queue length does an incoming req see
system.mem_ctrls0.rdQLenPdf::15                  2966                       # What read queue length does an incoming req see
system.mem_ctrls0.rdQLenPdf::16                  2890                       # What read queue length does an incoming req see
system.mem_ctrls0.rdQLenPdf::17                  2797                       # What read queue length does an incoming req see
system.mem_ctrls0.rdQLenPdf::18                  2712                       # What read queue length does an incoming req see
system.mem_ctrls0.rdQLenPdf::19                  2726                       # What read queue length does an incoming req see
system.mem_ctrls0.rdQLenPdf::20                  2625                       # What read queue length does an incoming req see
system.mem_ctrls0.rdQLenPdf::21                  2482                       # What read queue length does an incoming req see
system.mem_ctrls0.rdQLenPdf::22                  2404                       # What read queue length does an incoming req see
system.mem_ctrls0.rdQLenPdf::23                  2298                       # What read queue length does an incoming req see
system.mem_ctrls0.rdQLenPdf::24                  2241                       # What read queue length does an incoming req see
system.mem_ctrls0.rdQLenPdf::25                  2316                       # What read queue length does an incoming req see
system.mem_ctrls0.rdQLenPdf::26                  2256                       # What read queue length does an incoming req see
system.mem_ctrls0.rdQLenPdf::27                  2147                       # What read queue length does an incoming req see
system.mem_ctrls0.rdQLenPdf::28                  2109                       # What read queue length does an incoming req see
system.mem_ctrls0.rdQLenPdf::29                  2099                       # What read queue length does an incoming req see
system.mem_ctrls0.rdQLenPdf::30                  2215                       # What read queue length does an incoming req see
system.mem_ctrls0.rdQLenPdf::31                 81822                       # What read queue length does an incoming req see
system.mem_ctrls0.wrQLenPdf::0                  37678                       # What write queue length does an incoming req see
system.mem_ctrls0.wrQLenPdf::1                  38714                       # What write queue length does an incoming req see
system.mem_ctrls0.wrQLenPdf::2                  39297                       # What write queue length does an incoming req see
system.mem_ctrls0.wrQLenPdf::3                  39520                       # What write queue length does an incoming req see
system.mem_ctrls0.wrQLenPdf::4                  39288                       # What write queue length does an incoming req see
system.mem_ctrls0.wrQLenPdf::5                   5386                       # What write queue length does an incoming req see
system.mem_ctrls0.wrQLenPdf::6                   5799                       # What write queue length does an incoming req see
system.mem_ctrls0.wrQLenPdf::7                   6280                       # What write queue length does an incoming req see
system.mem_ctrls0.bytesPerActivate::samples       165735                       # Bytes accessed per row activation
system.mem_ctrls0.bytesPerActivate::mean   211.859752                       # Bytes accessed per row activation
system.mem_ctrls0.bytesPerActivate::gmean   157.717625                       # Bytes accessed per row activation
system.mem_ctrls0.bytesPerActivate::stdev   170.154228                       # Bytes accessed per row activation
system.mem_ctrls0.bytesPerActivate::0-127        59578     35.95%     35.95% # Bytes accessed per row activation
system.mem_ctrls0.bytesPerActivate::128-255        36237     21.86%     57.81% # Bytes accessed per row activation
system.mem_ctrls0.bytesPerActivate::256-383        53805     32.46%     90.28% # Bytes accessed per row activation
system.mem_ctrls0.bytesPerActivate::384-511         6208      3.75%     94.02% # Bytes accessed per row activation
system.mem_ctrls0.bytesPerActivate::512-639         4765      2.88%     96.90% # Bytes accessed per row activation
system.mem_ctrls0.bytesPerActivate::640-767         1913      1.15%     98.05% # Bytes accessed per row activation
system.mem_ctrls0.bytesPerActivate::768-895         1062      0.64%     98.69% # Bytes accessed per row activation
system.mem_ctrls0.bytesPerActivate::896-1023          854      0.52%     99.21% # Bytes accessed per row activation
system.mem_ctrls0.bytesPerActivate::1024-1151         1313      0.79%    100.00% # Bytes accessed per row activation
system.mem_ctrls0.bytesPerActivate::total       165735                       # Bytes accessed per row activation
system.mem_ctrls0.rdPerTurnAround::samples        37934                       # Reads before turning the bus around for writes
system.mem_ctrls0.rdPerTurnAround::mean      8.875415                       # Reads before turning the bus around for writes
system.mem_ctrls0.rdPerTurnAround::stdev    23.794772                       # Reads before turning the bus around for writes
system.mem_ctrls0.rdPerTurnAround::0-127        37925     99.98%     99.98% # Reads before turning the bus around for writes
system.mem_ctrls0.rdPerTurnAround::128-255            8      0.02%    100.00% # Reads before turning the bus around for writes
system.mem_ctrls0.rdPerTurnAround::3968-4095            1      0.00%    100.00% # Reads before turning the bus around for writes
system.mem_ctrls0.rdPerTurnAround::total        37934                       # Reads before turning the bus around for writes
system.mem_ctrls0.wrPerTurnAround::samples        37934                       # Writes before turning the bus around for reads
system.mem_ctrls0.wrPerTurnAround::mean      5.587626                       # Writes before turning the bus around for reads
system.mem_ctrls0.wrPerTurnAround::gmean     5.401911                       # Writes before turning the bus around for reads
system.mem_ctrls0.wrPerTurnAround::stdev     1.882731                       # Writes before turning the bus around for reads
system.mem_ctrls0.wrPerTurnAround::4-7          34649     91.34%     91.34% # Writes before turning the bus around for reads
system.mem_ctrls0.wrPerTurnAround::8-11          2142      5.65%     96.99% # Writes before turning the bus around for reads
system.mem_ctrls0.wrPerTurnAround::12-15          733      1.93%     98.92% # Writes before turning the bus around for reads
system.mem_ctrls0.wrPerTurnAround::16-19          410      1.08%    100.00% # Writes before turning the bus around for reads
system.mem_ctrls0.wrPerTurnAround::total        37934                       # Writes before turning the bus around for reads
system.mem_ctrls0.totQLat                 31895845918                       # Total ticks spent queuing
system.mem_ctrls0.totMemAccLat            38208652168                       # Total ticks spent from burst creation until serviced by the DRAM
system.mem_ctrls0.totBusLat                1683415000                       # Total ticks spent in databus transfers
system.mem_ctrls0.avgQLat                    94735.54                       # Average queueing delay per DRAM burst
system.mem_ctrls0.avgBusLat                   5000.00                       # Average bus latency per DRAM burst
system.mem_ctrls0.avgMemAccLat              113485.54                       # Average memory access latency per DRAM burst
system.mem_ctrls0.avgRdBW                      164.79                       # Average DRAM read bandwidth in MiByte/s
system.mem_ctrls0.avgWrBW                      103.75                       # Average achieved write bandwidth in MiByte/s
system.mem_ctrls0.avgRdBWSys                   164.80                       # Average system read bandwidth in MiByte/s
system.mem_ctrls0.avgWrBWSys                   103.75                       # Average system write bandwidth in MiByte/s
system.mem_ctrls0.peakBW                     12800.00                       # Theoretical peak bandwidth in MiByte/s
system.mem_ctrls0.busUtil                        2.10                       # Data bus utilization in percentage
system.mem_ctrls0.busUtilRead                    1.29                       # Data bus utilization in percentage for reads
system.mem_ctrls0.busUtilWrite                   0.81                       # Data bus utilization in percentage for writes
system.mem_ctrls0.avgRdQLen                      1.26                       # Average read queue length when enqueuing
system.mem_ctrls0.avgWrQLen                      2.96                       # Average write queue length when enqueuing
system.mem_ctrls0.readRowHits                  248263                       # Number of row buffer hits during reads
system.mem_ctrls0.writeRowHits                 134638                       # Number of row buffer hits during writes
system.mem_ctrls0.readRowHitRate                73.74                       # Row buffer hit rate for reads
system.mem_ctrls0.writeRowHitRate               63.52                       # Row buffer hit rate for writes
system.mem_ctrls0.avgGap                    238317.73                       # Average gap between requests
system.mem_ctrls0.pageHitRate                   69.79                       # Row buffer hit rate, read and write combined
system.mem_ctrls0.memoryStateTime::IDLE   28041623250                       # Time in different power states
system.mem_ctrls0.memoryStateTime::REF     4366180000                       # Time in different power states
system.mem_ctrls0.memoryStateTime::PRE_PDN            0                       # Time in different power states
system.mem_ctrls0.memoryStateTime::ACT    98347197750                       # Time in different power states
system.mem_ctrls0.memoryStateTime::ACT_PDN            0                       # Time in different power states
system.mem_ctrls0.actEnergy::0              633202920                       # Energy for activate commands per rank (pJ)
system.mem_ctrls0.actEnergy::1              619746120                       # Energy for activate commands per rank (pJ)
system.mem_ctrls0.preEnergy::0              345497625                       # Energy for precharge commands per rank (pJ)
system.mem_ctrls0.preEnergy::1              338155125                       # Energy for precharge commands per rank (pJ)
system.mem_ctrls0.readEnergy::0            1321312200                       # Energy for read commands per rank (pJ)
system.mem_ctrls0.readEnergy::1            1304745000                       # Energy for read commands per rank (pJ)
system.mem_ctrls0.writeEnergy::0            689387760                       # Energy for write commands per rank (pJ)
system.mem_ctrls0.writeEnergy::1            684087120                       # Energy for write commands per rank (pJ)
system.mem_ctrls0.refreshEnergy::0         8540248080                       # Energy for refresh commands per rank (pJ)
system.mem_ctrls0.refreshEnergy::1         8540248080                       # Energy for refresh commands per rank (pJ)
system.mem_ctrls0.actBackEnergy::0        49741679565                       # Energy for active background per rank (pJ)
system.mem_ctrls0.actBackEnergy::1        49308496380                       # Energy for active background per rank (pJ)
system.mem_ctrls0.preBackEnergy::0        34819801500                       # Energy for precharge background per rank (pJ)
system.mem_ctrls0.preBackEnergy::1        35199786750                       # Energy for precharge background per rank (pJ)
system.mem_ctrls0.totalEnergy::0          96091129650                       # Total energy per rank (pJ)
system.mem_ctrls0.totalEnergy::1          95995264575                       # Total energy per rank (pJ)
system.mem_ctrls0.averagePower::0          734.895865                       # Core power per rank (mW)
system.mem_ctrls0.averagePower::1          734.162698                       # Core power per rank (mW)
system.mem_ctrls1.bytes_read::ruby.dir_cntrl1     20827904                       # Number of bytes read from this memory
system.mem_ctrls1.bytes_read::total          20827904                       # Number of bytes read from this memory
system.mem_ctrls1.bytes_written::ruby.dir_cntrl1     12918336                       # Number of bytes written to this memory
system.mem_ctrls1.bytes_written::total       12918336                       # Number of bytes written to this memory
system.mem_ctrls1.num_reads::ruby.dir_cntrl1       325436                       # Number of read requests responded to by this memory
system.mem_ctrls1.num_reads::total             325436                       # Number of read requests responded to by this memory
system.mem_ctrls1.num_writes::ruby.dir_cntrl1       201849                       # Number of write requests responded to by this memory
system.mem_ctrls1.num_writes::total            201849                       # Number of write requests responded to by this memory
system.mem_ctrls1.bw_read::ruby.dir_cntrl1    159287562                       # Total read bandwidth from this memory (bytes/s)
system.mem_ctrls1.bw_read::total            159287562                       # Total read bandwidth from this memory (bytes/s)
system.mem_ctrls1.bw_write::ruby.dir_cntrl1     98796799                       # Write bandwidth from this memory (bytes/s)
system.mem_ctrls1.bw_write::total            98796799                       # Write bandwidth from this memory (bytes/s)
system.mem_ctrls1.bw_total::ruby.dir_cntrl1    258084361                       # Total bandwidth to/from this memory (bytes/s)
system.mem_ctrls1.bw_total::total           258084361                       # Total bandwidth to/from this memory (bytes/s)
system.mem_ctrls1.readReqs                     325436                       # Number of read requests accepted
system.mem_ctrls1.writeReqs                    201849                       # Number of write requests accepted
system.mem_ctrls1.readBursts                   325436                       # Number of DRAM read bursts, including those serviced by the write queue
system.mem_ctrls1.writeBursts                  201849                       # Number of DRAM write bursts, including those merged in the write queue
system.mem_ctrls1.bytesReadDRAM              20827072                       # Total number of bytes read from DRAM
system.mem_ctrls1.bytesReadWrQ                    832                       # Total number of bytes read from write queue
system.mem_ctrls1.bytesWritten               12918336                       # Total number of bytes written to DRAM
system.mem_ctrls1.bytesReadSys               20827904                       # Total read bytes from the system interface side
system.mem_ctrls1.bytesWrittenSys            12918336                       # Total written bytes from the system interface side
system.mem_ctrls1.servicedByWrQ                    13                       # Number of DRAM read bursts serviced by the write queue
system.mem_ctrls1.mergedWrBursts                    0                       # Number of DRAM write bursts merged with an existing one
system.mem_ctrls1.neitherReadNorWriteReqs            0                       # Number of requests that are neither read nor write
system.mem_ctrls1.perBankRdBursts::0            20059                       # Per bank write bursts
system.mem_ctrls1.perBankRdBursts::1            20698                       # Per bank write bursts
system.mem_ctrls1.perBankRdBursts::2            20233                       # Per bank write bursts
system.mem_ctrls1.perBankRdBursts::3            20752                       # Per bank write bursts
system.mem_ctrls1.perBankRdBursts::4            20427                       # Per bank write bursts
system.mem_ctrls1.perBankRdBursts::5            20607                       # Per bank write bursts
system.mem_ctrls1.perBankRdBursts::6            20525                       # Per bank write bursts
system.mem_ctrls1.perBankRdBursts::7            20596                       # Per bank write bursts
system.mem_ctrls1.perBankRdBursts::8            20192                       # Per bank write bursts
system.mem_ctrls1.perBankRdBursts::9            20382                       # Per bank write bursts
system.mem_ctrls1.perBankRdBursts::10           20153                       # Per bank write bursts
system.mem_ctrls1.perBankRdBursts::11           20570                       # Per bank write bursts
system.mem_ctrls1.perBankRdBursts::12           20050                       # Per bank write bursts
system.mem_ctrls1.perBankRdBursts::13           19916                       # Per bank write bursts
system.mem_ctrls1.perBankRdBursts::14           20130                       # Per bank write bursts
system.mem_ctrls1.perBankRdBursts::15           20133                       # Per bank write bursts
system.mem_ctrls1.perBankWrBursts::0            12651                       # Per bank write bursts
system.mem_ctrls1.perBankWrBursts::1            12635                       # Per bank write bursts
system.mem_ctrls1.perBankWrBursts::2            12548                       # Per bank write bursts
system.mem_ctrls1.perBankWrBursts::3            12753                       # Per bank write bursts
system.mem_ctrls1.perBankWrBursts::4            12598                       # Per bank write bursts
system.mem_ctrls1.perBankWrBursts::5            12742                       # Per bank write bursts
system.mem_ctrls1.perBankWrBursts::6            12627                       # Per bank write bursts
system.mem_ctrls1.perBankWrBursts::7            12823                       # Per bank write bursts
system.mem_ctrls1.perBankWrBursts::8            12528                       # Per bank write bursts
system.mem_ctrls1.perBankWrBursts::9            12743                       # Per bank write bursts
system.mem_ctrls1.perBankWrBursts::10           12565                       # Per bank write bursts
system.mem_ctrls1.perBankWrBursts::11           12494                       # Per bank write bursts
system.mem_ctrls1.perBankWrBursts::12           12487                       # Per bank write bursts
system.mem_ctrls1.perBankWrBursts::13           12462                       # Per bank write bursts
system.mem_ctrls1.perBankWrBursts::14           12671                       # Per bank write bursts
system.mem_ctrls1.perBankWrBursts::15           12522                       # Per bank write bursts
system.mem_ctrls1.numRdRetry                    60971                       # Number of times read queue was full causing retry
system.mem_ctrls1.numWrRetry                     2902                       # Number of times write queue was full causing retry
system.mem_ctrls1.totGap                 130755871000                       # Total gap between requests
system.mem_ctrls1.readPktSize::0                    0                       # Read request sizes (log2)
system.mem_ctrls1.readPktSize::1                    0                       # Read request sizes (log2)
system.mem_ctrls1.readPktSize::2                    0                       # Read request sizes (log2)
system.mem_ctrls1.readPktSize::3                    0                       # Read request sizes (log2)
system.mem_ctrls1.readPktSize::4                    0                       # Read request sizes (log2)
system.mem_ctrls1.readPktSize::5                    0                       # Read request sizes (log2)
system.mem_ctrls1.readPktSize::6               325436                       # Read request sizes (log2)
system.mem_ctrls1.writePktSize::0                   0                       # Write request sizes (log2)
system.mem_ctrls1.writePktSize::1                   0                       # Write request sizes (log2)
system.mem_ctrls1.writePktSize::2                   0                       # Write request sizes (log2)
system.mem_ctrls1.writePktSize::3                   0                       # Write request sizes (log2)
system.mem_ctrls1.writePktSize::4                   0                       # Write request sizes (log2)
system.mem_ctrls1.writePktSize::5                   0                       # Write request sizes (log2)
system.mem_ctrls1.writePktSize::6              201849                       # Write request sizes (log2)
system.mem_ctrls1.rdQLenPdf::0                 171384                       # What read queue length does an incoming req see
system.mem_ctrls1.rdQLenPdf::1                   2318                       # What read queue length does an incoming req see
system.mem_ctrls1.rdQLenPdf::2                   2074                       # What read queue length does an incoming req see
system.mem_ctrls1.rdQLenPdf::3                   2394                       # What read queue length does an incoming req see
system.mem_ctrls1.rdQLenPdf::4                   2704                       # What read queue length does an incoming req see
system.mem_ctrls1.rdQLenPdf::5                   3073                       # What read queue length does an incoming req see
system.mem_ctrls1.rdQLenPdf::6                   3288                       # What read queue length does an incoming req see
system.mem_ctrls1.rdQLenPdf::7                   3584                       # What read queue length does an incoming req see
system.mem_ctrls1.rdQLenPdf::8                   3710                       # What read queue length does an incoming req see
system.mem_ctrls1.rdQLenPdf::9                   3866                       # What read queue length does an incoming req see
system.mem_ctrls1.rdQLenPdf::10                  3901                       # What read queue length does an incoming req see
system.mem_ctrls1.rdQLenPdf::11                  3993                       # What read queue length does an incoming req see
system.mem_ctrls1.rdQLenPdf::12                  3884                       # What read queue length does an incoming req see
system.mem_ctrls1.rdQLenPdf::13                  3868                       # What read queue length does an incoming req see
system.mem_ctrls1.rdQLenPdf::14                  3703                       # What read queue length does an incoming req see
system.mem_ctrls1.rdQLenPdf::15                  3578                       # What read queue length does an incoming req see
system.mem_ctrls1.rdQLenPdf::16                  3395                       # What read queue length does an incoming req see
system.mem_ctrls1.rdQLenPdf::17                  3340                       # What read queue length does an incoming req see
system.mem_ctrls1.rdQLenPdf::18                  3153                       # What read queue length does an incoming req see
system.mem_ctrls1.rdQLenPdf::19                  3060                       # What read queue length does an incoming req see
system.mem_ctrls1.rdQLenPdf::20                  2990                       # What read queue length does an incoming req see
system.mem_ctrls1.rdQLenPdf::21                  2809                       # What read queue length does an incoming req see
system.mem_ctrls1.rdQLenPdf::22                  2718                       # What read queue length does an incoming req see
system.mem_ctrls1.rdQLenPdf::23                  2661                       # What read queue length does an incoming req see
system.mem_ctrls1.rdQLenPdf::24                  2544                       # What read queue length does an incoming req see
system.mem_ctrls1.rdQLenPdf::25                  2528                       # What read queue length does an incoming req see
system.mem_ctrls1.rdQLenPdf::26                  2396                       # What read queue length does an incoming req see
system.mem_ctrls1.rdQLenPdf::27                  2237                       # What read queue length does an incoming req see
system.mem_ctrls1.rdQLenPdf::28                  2216                       # What read queue length does an incoming req see
system.mem_ctrls1.rdQLenPdf::29                  2200                       # What read queue length does an incoming req see
system.mem_ctrls1.rdQLenPdf::30                  2248                       # What read queue length does an incoming req see
system.mem_ctrls1.rdQLenPdf::31                 63606                       # What read queue length does an incoming req see
system.mem_ctrls1.wrQLenPdf::0                  35877                       # What write queue length does an incoming req see
system.mem_ctrls1.wrQLenPdf::1                  36790                       # What write queue length does an incoming req see
system.mem_ctrls1.wrQLenPdf::2                  37174                       # What write queue length does an incoming req see
system.mem_ctrls1.wrQLenPdf::3                  37336                       # What write queue length does an incoming req see
system.mem_ctrls1.wrQLenPdf::4                  37571                       # What write queue length does an incoming req see
system.mem_ctrls1.wrQLenPdf::5                   5154                       # What write queue length does an incoming req see
system.mem_ctrls1.wrQLenPdf::6                   5598                       # What write queue length does an incoming req see
system.mem_ctrls1.wrQLenPdf::7                   6349                       # What write queue length does an incoming req see
system.mem_ctrls1.bytesPerActivate::samples       138322                       # Bytes accessed per row activation
system.mem_ctrls1.bytesPerActivate::mean   243.957143                       # Bytes accessed per row activation
system.mem_ctrls1.bytesPerActivate::gmean   191.011178                       # Bytes accessed per row activation
system.mem_ctrls1.bytesPerActivate::stdev   174.533446                       # Bytes accessed per row activation
system.mem_ctrls1.bytesPerActivate::0-127        30258     21.88%     21.88% # Bytes accessed per row activation
system.mem_ctrls1.bytesPerActivate::128-255        37117     26.83%     48.71% # Bytes accessed per row activation
system.mem_ctrls1.bytesPerActivate::256-383        53820     38.91%     87.62% # Bytes accessed per row activation
system.mem_ctrls1.bytesPerActivate::384-511         5912      4.27%     91.89% # Bytes accessed per row activation
system.mem_ctrls1.bytesPerActivate::512-639         5408      3.91%     95.80% # Bytes accessed per row activation
system.mem_ctrls1.bytesPerActivate::640-767         2149      1.55%     97.36% # Bytes accessed per row activation
system.mem_ctrls1.bytesPerActivate::768-895         1183      0.86%     98.21% # Bytes accessed per row activation
system.mem_ctrls1.bytesPerActivate::896-1023          941      0.68%     98.89% # Bytes accessed per row activation
system.mem_ctrls1.bytesPerActivate::1024-1151         1534      1.11%    100.00% # Bytes accessed per row activation
system.mem_ctrls1.bytesPerActivate::total       138322                       # Bytes accessed per row activation
system.mem_ctrls1.rdPerTurnAround::samples        36158                       # Reads before turning the bus around for writes
system.mem_ctrls1.rdPerTurnAround::mean      8.999945                       # Reads before turning the bus around for writes
system.mem_ctrls1.rdPerTurnAround::stdev    20.759979                       # Reads before turning the bus around for writes
system.mem_ctrls1.rdPerTurnAround::0-127        36143     99.96%     99.96% # Reads before turning the bus around for writes
system.mem_ctrls1.rdPerTurnAround::128-255           13      0.04%     99.99% # Reads before turning the bus around for writes
system.mem_ctrls1.rdPerTurnAround::1152-1279            1      0.00%    100.00% # Reads before turning the bus around for writes
system.mem_ctrls1.rdPerTurnAround::2816-2943            1      0.00%    100.00% # Reads before turning the bus around for writes
system.mem_ctrls1.rdPerTurnAround::total        36158                       # Reads before turning the bus around for writes
system.mem_ctrls1.wrPerTurnAround::samples        36158                       # Writes before turning the bus around for reads
system.mem_ctrls1.wrPerTurnAround::mean      5.582416                       # Writes before turning the bus around for reads
system.mem_ctrls1.wrPerTurnAround::gmean     5.388424                       # Writes before turning the bus around for reads
system.mem_ctrls1.wrPerTurnAround::stdev     1.941905                       # Writes before turning the bus around for reads
system.mem_ctrls1.wrPerTurnAround::4-7          32998     91.26%     91.26% # Writes before turning the bus around for reads
system.mem_ctrls1.wrPerTurnAround::8-11          1936      5.35%     96.61% # Writes before turning the bus around for reads
system.mem_ctrls1.wrPerTurnAround::12-15          764      2.11%     98.73% # Writes before turning the bus around for reads
system.mem_ctrls1.wrPerTurnAround::16-19          460      1.27%    100.00% # Writes before turning the bus around for reads
system.mem_ctrls1.wrPerTurnAround::total        36158                       # Writes before turning the bus around for reads
system.mem_ctrls1.totQLat                 28060537423                       # Total ticks spent queuing
system.mem_ctrls1.totMemAccLat            34162218673                       # Total ticks spent from burst creation until serviced by the DRAM
system.mem_ctrls1.totBusLat                1627115000                       # Total ticks spent in databus transfers
system.mem_ctrls1.avgQLat                    86227.89                       # Average queueing delay per DRAM burst
system.mem_ctrls1.avgBusLat                   5000.00                       # Average bus latency per DRAM burst
system.mem_ctrls1.avgMemAccLat              104977.89                       # Average memory access latency per DRAM burst
system.mem_ctrls1.avgRdBW                      159.28                       # Average DRAM read bandwidth in MiByte/s
system.mem_ctrls1.avgWrBW                       98.80                       # Average achieved write bandwidth in MiByte/s
system.mem_ctrls1.avgRdBWSys                   159.29                       # Average system read bandwidth in MiByte/s
system.mem_ctrls1.avgWrBWSys                    98.80                       # Average system write bandwidth in MiByte/s
system.mem_ctrls1.peakBW                     12800.00                       # Theoretical peak bandwidth in MiByte/s
system.mem_ctrls1.busUtil                        2.02                       # Data bus utilization in percentage
system.mem_ctrls1.busUtilRead                    1.24                       # Data bus utilization in percentage for reads
system.mem_ctrls1.busUtilWrite                   0.77                       # Data bus utilization in percentage for writes
system.mem_ctrls1.avgRdQLen                      1.23                       # Average read queue length when enqueuing
system.mem_ctrls1.avgWrQLen                      2.98                       # Average write queue length when enqueuing
system.mem_ctrls1.readRowHits                  248771                       # Number of row buffer hits during reads
system.mem_ctrls1.writeRowHits                 140173                       # Number of row buffer hits during writes
system.mem_ctrls1.readRowHitRate                76.45                       # Row buffer hit rate for reads
system.mem_ctrls1.writeRowHitRate               69.44                       # Row buffer hit rate for writes
system.mem_ctrls1.avgGap                    247979.50                       # Average gap between requests
system.mem_ctrls1.pageHitRate                   73.77                       # Row buffer hit rate, read and write combined
system.mem_ctrls1.memoryStateTime::IDLE   28549341000                       # Time in different power states
system.mem_ctrls1.memoryStateTime::REF     4366180000                       # Time in different power states
system.mem_ctrls1.memoryStateTime::PRE_PDN            0                       # Time in different power states
system.mem_ctrls1.memoryStateTime::ACT    97839249000                       # Time in different power states
system.mem_ctrls1.memoryStateTime::ACT_PDN            0                       # Time in different power states
system.mem_ctrls1.actEnergy::0              531377280                       # Energy for activate commands per rank (pJ)
system.mem_ctrls1.actEnergy::1              514321920                       # Energy for activate commands per rank (pJ)
system.mem_ctrls1.preEnergy::0              289938000                       # Energy for precharge commands per rank (pJ)
system.mem_ctrls1.preEnergy::1              280632000                       # Energy for precharge commands per rank (pJ)
system.mem_ctrls1.readEnergy::0            1278365400                       # Energy for read commands per rank (pJ)
system.mem_ctrls1.readEnergy::1            1259856000                       # Energy for read commands per rank (pJ)
system.mem_ctrls1.writeEnergy::0            656903520                       # Energy for write commands per rank (pJ)
system.mem_ctrls1.writeEnergy::1            651045600                       # Energy for write commands per rank (pJ)
system.mem_ctrls1.refreshEnergy::0         8540248080                       # Energy for refresh commands per rank (pJ)
system.mem_ctrls1.refreshEnergy::1         8540248080                       # Energy for refresh commands per rank (pJ)
system.mem_ctrls1.actBackEnergy::0        49180170285                       # Energy for active background per rank (pJ)
system.mem_ctrls1.actBackEnergy::1        48240002025                       # Energy for active background per rank (pJ)
system.mem_ctrls1.preBackEnergy::0        35312353500                       # Energy for precharge background per rank (pJ)
system.mem_ctrls1.preBackEnergy::1        36137062500                       # Energy for precharge background per rank (pJ)
system.mem_ctrls1.totalEnergy::0          95789356065                       # Total energy per rank (pJ)
system.mem_ctrls1.totalEnergy::1          95623168125                       # Total energy per rank (pJ)
system.mem_ctrls1.averagePower::0          732.587929                       # Core power per rank (mW)
system.mem_ctrls1.averagePower::1          731.316939                       # Core power per rank (mW)
system.mem_ctrls2.bytes_read::ruby.dir_cntrl2     20827264                       # Number of bytes read from this memory
system.mem_ctrls2.bytes_read::total          20827264                       # Number of bytes read from this memory
system.mem_ctrls2.bytes_written::ruby.dir_cntrl2     12918464                       # Number of bytes written to this memory
system.mem_ctrls2.bytes_written::total       12918464                       # Number of bytes written to this memory
system.mem_ctrls2.num_reads::ruby.dir_cntrl2       325426                       # Number of read requests responded to by this memory
system.mem_ctrls2.num_reads::total             325426                       # Number of read requests responded to by this memory
system.mem_ctrls2.num_writes::ruby.dir_cntrl2       201851                       # Number of write requests responded to by this memory
system.mem_ctrls2.num_writes::total            201851                       # Number of write requests responded to by this memory
system.mem_ctrls2.bw_read::ruby.dir_cntrl2    159282667                       # Total read bandwidth from this memory (bytes/s)
system.mem_ctrls2.bw_read::total            159282667                       # Total read bandwidth from this memory (bytes/s)
system.mem_ctrls2.bw_write::ruby.dir_cntrl2     98797778                       # Write bandwidth from this memory (bytes/s)
system.mem_ctrls2.bw_write::total            98797778                       # Write bandwidth from this memory (bytes/s)
system.mem_ctrls2.bw_total::ruby.dir_cntrl2    258080445                       # Total bandwidth to/from this memory (bytes/s)
system.mem_ctrls2.bw_total::total           258080445                       # Total bandwidth to/from this memory (bytes/s)
system.mem_ctrls2.readReqs                     325426                       # Number of read requests accepted
system.mem_ctrls2.writeReqs                    201851                       # Number of write requests accepted
system.mem_ctrls2.readBursts                   325426                       # Number of DRAM read bursts, including those serviced by the write queue
system.mem_ctrls2.writeBursts                  201851                       # Number of DRAM write bursts, including those merged in the write queue
system.mem_ctrls2.bytesReadDRAM              20826304                       # Total number of bytes read from DRAM
system.mem_ctrls2.bytesReadWrQ                    960                       # Total number of bytes read from write queue
system.mem_ctrls2.bytesWritten               12918208                       # Total number of bytes written to DRAM
system.mem_ctrls2.bytesReadSys               20827264                       # Total read bytes from the system interface side
system.mem_ctrls2.bytesWrittenSys            12918464                       # Total written bytes from the system interface side
system.mem_ctrls2.servicedByWrQ                    15                       # Number of DRAM read bursts serviced by the write queue
system.mem_ctrls2.mergedWrBursts                    0                       # Number of DRAM write bursts merged with an existing one
system.mem_ctrls2.neitherReadNorWriteReqs            0                       # Number of requests that are neither read nor write
system.mem_ctrls2.perBankRdBursts::0            20056                       # Per bank write bursts
system.mem_ctrls2.perBankRdBursts::1            20680                       # Per bank write bursts
system.mem_ctrls2.perBankRdBursts::2            20244                       # Per bank write bursts
system.mem_ctrls2.perBankRdBursts::3            20795                       # Per bank write bursts
system.mem_ctrls2.perBankRdBursts::4            20432                       # Per bank write bursts
system.mem_ctrls2.perBankRdBursts::5            20592                       # Per bank write bursts
system.mem_ctrls2.perBankRdBursts::6            20502                       # Per bank write bursts
system.mem_ctrls2.perBankRdBursts::7            20575                       # Per bank write bursts
system.mem_ctrls2.perBankRdBursts::8            20154                       # Per bank write bursts
system.mem_ctrls2.perBankRdBursts::9            20392                       # Per bank write bursts
system.mem_ctrls2.perBankRdBursts::10           20161                       # Per bank write bursts
system.mem_ctrls2.perBankRdBursts::11           20587                       # Per bank write bursts
system.mem_ctrls2.perBankRdBursts::12           20070                       # Per bank write bursts
system.mem_ctrls2.perBankRdBursts::13           19877                       # Per bank write bursts
system.mem_ctrls2.perBankRdBursts::14           20125                       # Per bank write bursts
system.mem_ctrls2.perBankRdBursts::15           20169                       # Per bank write bursts
system.mem_ctrls2.perBankWrBursts::0            12645                       # Per bank write bursts
system.mem_ctrls2.perBankWrBursts::1            12634                       # Per bank write bursts
system.mem_ctrls2.perBankWrBursts::2            12544                       # Per bank write bursts
system.mem_ctrls2.perBankWrBursts::3            12761                       # Per bank write bursts
system.mem_ctrls2.perBankWrBursts::4            12596                       # Per bank write bursts
system.mem_ctrls2.perBankWrBursts::5            12722                       # Per bank write bursts
system.mem_ctrls2.perBankWrBursts::6            12634                       # Per bank write bursts
system.mem_ctrls2.perBankWrBursts::7            12822                       # Per bank write bursts
system.mem_ctrls2.perBankWrBursts::8            12512                       # Per bank write bursts
system.mem_ctrls2.perBankWrBursts::9            12749                       # Per bank write bursts
system.mem_ctrls2.perBankWrBursts::10           12562                       # Per bank write bursts
system.mem_ctrls2.perBankWrBursts::11           12508                       # Per bank write bursts
system.mem_ctrls2.perBankWrBursts::12           12494                       # Per bank write bursts
system.mem_ctrls2.perBankWrBursts::13           12455                       # Per bank write bursts
system.mem_ctrls2.perBankWrBursts::14           12674                       # Per bank write bursts
system.mem_ctrls2.perBankWrBursts::15           12535                       # Per bank write bursts
system.mem_ctrls2.numRdRetry                    60290                       # Number of times read queue was full causing retry
system.mem_ctrls2.numWrRetry                     3145                       # Number of times write queue was full causing retry
system.mem_ctrls2.totGap                 130756098000                       # Total gap between requests
system.mem_ctrls2.readPktSize::0                    0                       # Read request sizes (log2)
system.mem_ctrls2.readPktSize::1                    0                       # Read request sizes (log2)
system.mem_ctrls2.readPktSize::2                    0                       # Read request sizes (log2)
system.mem_ctrls2.readPktSize::3                    0                       # Read request sizes (log2)
system.mem_ctrls2.readPktSize::4                    0                       # Read request sizes (log2)
system.mem_ctrls2.readPktSize::5                    0                       # Read request sizes (log2)
system.mem_ctrls2.readPktSize::6               325426                       # Read request sizes (log2)
system.mem_ctrls2.writePktSize::0                   0                       # Write request sizes (log2)
system.mem_ctrls2.writePktSize::1                   0                       # Write request sizes (log2)
system.mem_ctrls2.writePktSize::2                   0                       # Write request sizes (log2)
system.mem_ctrls2.writePktSize::3                   0                       # Write request sizes (log2)
system.mem_ctrls2.writePktSize::4                   0                       # Write request sizes (log2)
system.mem_ctrls2.writePktSize::5                   0                       # Write request sizes (log2)
system.mem_ctrls2.writePktSize::6              201851                       # Write request sizes (log2)
system.mem_ctrls2.rdQLenPdf::0                 171584                       # What read queue length does an incoming req see
system.mem_ctrls2.rdQLenPdf::1                   2171                       # What read queue length does an incoming req see
system.mem_ctrls2.rdQLenPdf::2                   2108                       # What read queue length does an incoming req see
system.mem_ctrls2.rdQLenPdf::3                   2354                       # What read queue length does an incoming req see
system.mem_ctrls2.rdQLenPdf::4                   2760                       # What read queue length does an incoming req see
system.mem_ctrls2.rdQLenPdf::5                   3176                       # What read queue length does an incoming req see
system.mem_ctrls2.rdQLenPdf::6                   3313                       # What read queue length does an incoming req see
system.mem_ctrls2.rdQLenPdf::7                   3554                       # What read queue length does an incoming req see
system.mem_ctrls2.rdQLenPdf::8                   3707                       # What read queue length does an incoming req see
system.mem_ctrls2.rdQLenPdf::9                   3862                       # What read queue length does an incoming req see
system.mem_ctrls2.rdQLenPdf::10                  3850                       # What read queue length does an incoming req see
system.mem_ctrls2.rdQLenPdf::11                  3772                       # What read queue length does an incoming req see
system.mem_ctrls2.rdQLenPdf::12                  3769                       # What read queue length does an incoming req see
system.mem_ctrls2.rdQLenPdf::13                  3658                       # What read queue length does an incoming req see
system.mem_ctrls2.rdQLenPdf::14                  3496                       # What read queue length does an incoming req see
system.mem_ctrls2.rdQLenPdf::15                  3444                       # What read queue length does an incoming req see
system.mem_ctrls2.rdQLenPdf::16                  3523                       # What read queue length does an incoming req see
system.mem_ctrls2.rdQLenPdf::17                  3344                       # What read queue length does an incoming req see
system.mem_ctrls2.rdQLenPdf::18                  3311                       # What read queue length does an incoming req see
system.mem_ctrls2.rdQLenPdf::19                  3073                       # What read queue length does an incoming req see
system.mem_ctrls2.rdQLenPdf::20                  2989                       # What read queue length does an incoming req see
system.mem_ctrls2.rdQLenPdf::21                  2949                       # What read queue length does an incoming req see
system.mem_ctrls2.rdQLenPdf::22                  2840                       # What read queue length does an incoming req see
system.mem_ctrls2.rdQLenPdf::23                  2699                       # What read queue length does an incoming req see
system.mem_ctrls2.rdQLenPdf::24                  2691                       # What read queue length does an incoming req see
system.mem_ctrls2.rdQLenPdf::25                  2645                       # What read queue length does an incoming req see
system.mem_ctrls2.rdQLenPdf::26                  2446                       # What read queue length does an incoming req see
system.mem_ctrls2.rdQLenPdf::27                  2402                       # What read queue length does an incoming req see
system.mem_ctrls2.rdQLenPdf::28                  2270                       # What read queue length does an incoming req see
system.mem_ctrls2.rdQLenPdf::29                  2231                       # What read queue length does an incoming req see
system.mem_ctrls2.rdQLenPdf::30                  2418                       # What read queue length does an incoming req see
system.mem_ctrls2.rdQLenPdf::31                 63002                       # What read queue length does an incoming req see
system.mem_ctrls2.wrQLenPdf::0                  35882                       # What write queue length does an incoming req see
system.mem_ctrls2.wrQLenPdf::1                  36827                       # What write queue length does an incoming req see
system.mem_ctrls2.wrQLenPdf::2                  37106                       # What write queue length does an incoming req see
system.mem_ctrls2.wrQLenPdf::3                  37261                       # What write queue length does an incoming req see
system.mem_ctrls2.wrQLenPdf::4                  37505                       # What write queue length does an incoming req see
system.mem_ctrls2.wrQLenPdf::5                   5216                       # What write queue length does an incoming req see
system.mem_ctrls2.wrQLenPdf::6                   5533                       # What write queue length does an incoming req see
system.mem_ctrls2.wrQLenPdf::7                   6521                       # What write queue length does an incoming req see
system.mem_ctrls2.bytesPerActivate::samples       137930                       # Bytes accessed per row activation
system.mem_ctrls2.bytesPerActivate::mean   244.645835                       # Bytes accessed per row activation
system.mem_ctrls2.bytesPerActivate::gmean   191.525252                       # Bytes accessed per row activation
system.mem_ctrls2.bytesPerActivate::stdev   174.486801                       # Bytes accessed per row activation
system.mem_ctrls2.bytesPerActivate::0-127        30416     22.05%     22.05% # Bytes accessed per row activation
system.mem_ctrls2.bytesPerActivate::128-255        35849     25.99%     48.04% # Bytes accessed per row activation
system.mem_ctrls2.bytesPerActivate::256-383        54486     39.50%     87.55% # Bytes accessed per row activation
system.mem_ctrls2.bytesPerActivate::384-511         5939      4.31%     91.85% # Bytes accessed per row activation
system.mem_ctrls2.bytesPerActivate::512-639         5491      3.98%     95.83% # Bytes accessed per row activation
system.mem_ctrls2.bytesPerActivate::640-767         2123      1.54%     97.37% # Bytes accessed per row activation
system.mem_ctrls2.bytesPerActivate::768-895         1161      0.84%     98.21% # Bytes accessed per row activation
system.mem_ctrls2.bytesPerActivate::896-1023          883      0.64%     98.85% # Bytes accessed per row activation
system.mem_ctrls2.bytesPerActivate::1024-1151         1582      1.15%    100.00% # Bytes accessed per row activation
system.mem_ctrls2.bytesPerActivate::total       137930                       # Bytes accessed per row activation
system.mem_ctrls2.rdPerTurnAround::samples        36179                       # Reads before turning the bus around for writes
system.mem_ctrls2.rdPerTurnAround::mean      8.993643                       # Reads before turning the bus around for writes
system.mem_ctrls2.rdPerTurnAround::stdev    20.756706                       # Reads before turning the bus around for writes
system.mem_ctrls2.rdPerTurnAround::0-127        36167     99.97%     99.97% # Reads before turning the bus around for writes
system.mem_ctrls2.rdPerTurnAround::128-255           10      0.03%     99.99% # Reads before turning the bus around for writes
system.mem_ctrls2.rdPerTurnAround::1152-1279            1      0.00%    100.00% # Reads before turning the bus around for writes
system.mem_ctrls2.rdPerTurnAround::2816-2943            1      0.00%    100.00% # Reads before turning the bus around for writes
system.mem_ctrls2.rdPerTurnAround::total        36179                       # Reads before turning the bus around for writes
system.mem_ctrls2.wrPerTurnAround::samples        36179                       # Writes before turning the bus around for reads
system.mem_ctrls2.wrPerTurnAround::mean      5.579120                       # Writes before turning the bus around for reads
system.mem_ctrls2.wrPerTurnAround::gmean     5.386183                       # Writes before turning the bus around for reads
system.mem_ctrls2.wrPerTurnAround::stdev     1.935355                       # Writes before turning the bus around for reads
system.mem_ctrls2.wrPerTurnAround::4-7          33010     91.24%     91.24% # Writes before turning the bus around for reads
system.mem_ctrls2.wrPerTurnAround::8-11          1967      5.44%     96.68% # Writes before turning the bus around for reads
system.mem_ctrls2.wrPerTurnAround::12-15          748      2.07%     98.75% # Writes before turning the bus around for reads
system.mem_ctrls2.wrPerTurnAround::16-19          454      1.25%    100.00% # Writes before turning the bus around for reads
system.mem_ctrls2.wrPerTurnAround::total        36179                       # Writes before turning the bus around for reads
system.mem_ctrls2.totQLat                 28023452427                       # Total ticks spent queuing
system.mem_ctrls2.totMemAccLat            34124908677                       # Total ticks spent from burst creation until serviced by the DRAM
system.mem_ctrls2.totBusLat                1627055000                       # Total ticks spent in databus transfers
system.mem_ctrls2.avgQLat                    86117.10                       # Average queueing delay per DRAM burst
system.mem_ctrls2.avgBusLat                   5000.00                       # Average bus latency per DRAM burst
system.mem_ctrls2.avgMemAccLat              104867.10                       # Average memory access latency per DRAM burst
system.mem_ctrls2.avgRdBW                      159.28                       # Average DRAM read bandwidth in MiByte/s
system.mem_ctrls2.avgWrBW                       98.80                       # Average achieved write bandwidth in MiByte/s
system.mem_ctrls2.avgRdBWSys                   159.28                       # Average system read bandwidth in MiByte/s
system.mem_ctrls2.avgWrBWSys                    98.80                       # Average system write bandwidth in MiByte/s
system.mem_ctrls2.peakBW                     12800.00                       # Theoretical peak bandwidth in MiByte/s
system.mem_ctrls2.busUtil                        2.02                       # Data bus utilization in percentage
system.mem_ctrls2.busUtilRead                    1.24                       # Data bus utilization in percentage for reads
system.mem_ctrls2.busUtilWrite                   0.77                       # Data bus utilization in percentage for writes
system.mem_ctrls2.avgRdQLen                      1.23                       # Average read queue length when enqueuing
system.mem_ctrls2.avgWrQLen                      2.95                       # Average write queue length when enqueuing
system.mem_ctrls2.readRowHits                  248839                       # Number of row buffer hits during reads
system.mem_ctrls2.writeRowHits                 140484                       # Number of row buffer hits during writes
system.mem_ctrls2.readRowHitRate                76.47                       # Row buffer hit rate for reads
system.mem_ctrls2.writeRowHitRate               69.60                       # Row buffer hit rate for writes
system.mem_ctrls2.avgGap                    247983.69                       # Average gap between requests
system.mem_ctrls2.pageHitRate                   73.84                       # Row buffer hit rate, read and write combined
system.mem_ctrls2.memoryStateTime::IDLE   28404044500                       # Time in different power states
system.mem_ctrls2.memoryStateTime::REF     4366180000                       # Time in different power states
system.mem_ctrls2.memoryStateTime::PRE_PDN            0                       # Time in different power states
system.mem_ctrls2.memoryStateTime::ACT    97984545500                       # Time in different power states
system.mem_ctrls2.memoryStateTime::ACT_PDN            0                       # Time in different power states
system.mem_ctrls2.actEnergy::0              529457040                       # Energy for activate commands per rank (pJ)
system.mem_ctrls2.actEnergy::1              513286200                       # Energy for activate commands per rank (pJ)
system.mem_ctrls2.preEnergy::0              288890250                       # Energy for precharge commands per rank (pJ)
system.mem_ctrls2.preEnergy::1              280066875                       # Energy for precharge commands per rank (pJ)
system.mem_ctrls2.readEnergy::0            1278193800                       # Energy for read commands per rank (pJ)
system.mem_ctrls2.readEnergy::1            1259941800                       # Energy for read commands per rank (pJ)
system.mem_ctrls2.writeEnergy::0            656799840                       # Energy for write commands per rank (pJ)
system.mem_ctrls2.writeEnergy::1            651168720                       # Energy for write commands per rank (pJ)
system.mem_ctrls2.refreshEnergy::0         8540248080                       # Energy for refresh commands per rank (pJ)
system.mem_ctrls2.refreshEnergy::1         8540248080                       # Energy for refresh commands per rank (pJ)
system.mem_ctrls2.actBackEnergy::0        48911652405                       # Energy for active background per rank (pJ)
system.mem_ctrls2.actBackEnergy::1        47983974840                       # Energy for active background per rank (pJ)
system.mem_ctrls2.preBackEnergy::0        35547895500                       # Energy for precharge background per rank (pJ)
system.mem_ctrls2.preBackEnergy::1        36361647750                       # Energy for precharge background per rank (pJ)
system.mem_ctrls2.totalEnergy::0          95753136915                       # Total energy per rank (pJ)
system.mem_ctrls2.totalEnergy::1          95590334265                       # Total energy per rank (pJ)
system.mem_ctrls2.averagePower::0          732.310928                       # Core power per rank (mW)
system.mem_ctrls2.averagePower::1          731.065829                       # Core power per rank (mW)
system.mem_ctrls3.bytes_read::ruby.dir_cntrl3     20806272                       # Number of bytes read from this memory
system.mem_ctrls3.bytes_read::total          20806272                       # Number of bytes read from this memory
system.mem_ctrls3.bytes_written::ruby.dir_cntrl3     12917440                       # Number of bytes written to this memory
system.mem_ctrls3.bytes_written::total       12917440                       # Number of bytes written to this memory
system.mem_ctrls3.num_reads::ruby.dir_cntrl3       325098                       # Number of read requests responded to by this memory
system.mem_ctrls3.num_reads::total             325098                       # Number of read requests responded to by this memory
system.mem_ctrls3.num_writes::ruby.dir_cntrl3       201835                       # Number of write requests responded to by this memory
system.mem_ctrls3.num_writes::total            201835                       # Number of write requests responded to by this memory
system.mem_ctrls3.bw_read::ruby.dir_cntrl3    159122125                       # Total read bandwidth from this memory (bytes/s)
system.mem_ctrls3.bw_read::total            159122125                       # Total read bandwidth from this memory (bytes/s)
system.mem_ctrls3.bw_write::ruby.dir_cntrl3     98789947                       # Write bandwidth from this memory (bytes/s)
system.mem_ctrls3.bw_write::total            98789947                       # Write bandwidth from this memory (bytes/s)
system.mem_ctrls3.bw_total::ruby.dir_cntrl3    257912071                       # Total bandwidth to/from this memory (bytes/s)
system.mem_ctrls3.bw_total::total           257912071                       # Total bandwidth to/from this memory (bytes/s)
system.mem_ctrls3.readReqs                     325098                       # Number of read requests accepted
system.mem_ctrls3.writeReqs                    201835                       # Number of write requests accepted
system.mem_ctrls3.readBursts                   325098                       # Number of DRAM read bursts, including those serviced by the write queue
system.mem_ctrls3.writeBursts                  201835                       # Number of DRAM write bursts, including those merged in the write queue
system.mem_ctrls3.bytesReadDRAM              20805440                       # Total number of bytes read from DRAM
system.mem_ctrls3.bytesReadWrQ                    832                       # Total number of bytes read from write queue
system.mem_ctrls3.bytesWritten               12917312                       # Total number of bytes written to DRAM
system.mem_ctrls3.bytesReadSys               20806272                       # Total read bytes from the system interface side
system.mem_ctrls3.bytesWrittenSys            12917440                       # Total written bytes from the system interface side
system.mem_ctrls3.servicedByWrQ                    13                       # Number of DRAM read bursts serviced by the write queue
system.mem_ctrls3.mergedWrBursts                    0                       # Number of DRAM write bursts merged with an existing one
system.mem_ctrls3.neitherReadNorWriteReqs            0                       # Number of requests that are neither read nor write
system.mem_ctrls3.perBankRdBursts::0            20050                       # Per bank write bursts
system.mem_ctrls3.perBankRdBursts::1            20650                       # Per bank write bursts
system.mem_ctrls3.perBankRdBursts::2            20160                       # Per bank write bursts
system.mem_ctrls3.perBankRdBursts::3            20767                       # Per bank write bursts
system.mem_ctrls3.perBankRdBursts::4            20365                       # Per bank write bursts
system.mem_ctrls3.perBankRdBursts::5            20592                       # Per bank write bursts
system.mem_ctrls3.perBankRdBursts::6            20515                       # Per bank write bursts
system.mem_ctrls3.perBankRdBursts::7            20558                       # Per bank write bursts
system.mem_ctrls3.perBankRdBursts::8            20145                       # Per bank write bursts
system.mem_ctrls3.perBankRdBursts::9            20381                       # Per bank write bursts
system.mem_ctrls3.perBankRdBursts::10           20199                       # Per bank write bursts
system.mem_ctrls3.perBankRdBursts::11           20539                       # Per bank write bursts
system.mem_ctrls3.perBankRdBursts::12           20005                       # Per bank write bursts
system.mem_ctrls3.perBankRdBursts::13           19873                       # Per bank write bursts
system.mem_ctrls3.perBankRdBursts::14           20146                       # Per bank write bursts
system.mem_ctrls3.perBankRdBursts::15           20140                       # Per bank write bursts
system.mem_ctrls3.perBankWrBursts::0            12651                       # Per bank write bursts
system.mem_ctrls3.perBankWrBursts::1            12624                       # Per bank write bursts
system.mem_ctrls3.perBankWrBursts::2            12552                       # Per bank write bursts
system.mem_ctrls3.perBankWrBursts::3            12751                       # Per bank write bursts
system.mem_ctrls3.perBankWrBursts::4            12596                       # Per bank write bursts
system.mem_ctrls3.perBankWrBursts::5            12728                       # Per bank write bursts
system.mem_ctrls3.perBankWrBursts::6            12629                       # Per bank write bursts
system.mem_ctrls3.perBankWrBursts::7            12816                       # Per bank write bursts
system.mem_ctrls3.perBankWrBursts::8            12509                       # Per bank write bursts
system.mem_ctrls3.perBankWrBursts::9            12752                       # Per bank write bursts
system.mem_ctrls3.perBankWrBursts::10           12562                       # Per bank write bursts
system.mem_ctrls3.perBankWrBursts::11           12514                       # Per bank write bursts
system.mem_ctrls3.perBankWrBursts::12           12490                       # Per bank write bursts
system.mem_ctrls3.perBankWrBursts::13           12460                       # Per bank write bursts
system.mem_ctrls3.perBankWrBursts::14           12682                       # Per bank write bursts
system.mem_ctrls3.perBankWrBursts::15           12517                       # Per bank write bursts
system.mem_ctrls3.numRdRetry                    59401                       # Number of times read queue was full causing retry
system.mem_ctrls3.numWrRetry                     2987                       # Number of times write queue was full causing retry
system.mem_ctrls3.totGap                 130755560500                       # Total gap between requests
system.mem_ctrls3.readPktSize::0                    0                       # Read request sizes (log2)
system.mem_ctrls3.readPktSize::1                    0                       # Read request sizes (log2)
system.mem_ctrls3.readPktSize::2                    0                       # Read request sizes (log2)
system.mem_ctrls3.readPktSize::3                    0                       # Read request sizes (log2)
system.mem_ctrls3.readPktSize::4                    0                       # Read request sizes (log2)
system.mem_ctrls3.readPktSize::5                    0                       # Read request sizes (log2)
system.mem_ctrls3.readPktSize::6               325098                       # Read request sizes (log2)
system.mem_ctrls3.writePktSize::0                   0                       # Write request sizes (log2)
system.mem_ctrls3.writePktSize::1                   0                       # Write request sizes (log2)
system.mem_ctrls3.writePktSize::2                   0                       # Write request sizes (log2)
system.mem_ctrls3.writePktSize::3                   0                       # Write request sizes (log2)
system.mem_ctrls3.writePktSize::4                   0                       # Write request sizes (log2)
system.mem_ctrls3.writePktSize::5                   0                       # Write request sizes (log2)
system.mem_ctrls3.writePktSize::6              201835                       # Write request sizes (log2)
system.mem_ctrls3.rdQLenPdf::0                 171223                       # What read queue length does an incoming req see
system.mem_ctrls3.rdQLenPdf::1                   2211                       # What read queue length does an incoming req see
system.mem_ctrls3.rdQLenPdf::2                   2154                       # What read queue length does an incoming req see
system.mem_ctrls3.rdQLenPdf::3                   2455                       # What read queue length does an incoming req see
system.mem_ctrls3.rdQLenPdf::4                   2715                       # What read queue length does an incoming req see
system.mem_ctrls3.rdQLenPdf::5                   3091                       # What read queue length does an incoming req see
system.mem_ctrls3.rdQLenPdf::6                   3457                       # What read queue length does an incoming req see
system.mem_ctrls3.rdQLenPdf::7                   3609                       # What read queue length does an incoming req see
system.mem_ctrls3.rdQLenPdf::8                   3811                       # What read queue length does an incoming req see
system.mem_ctrls3.rdQLenPdf::9                   4051                       # What read queue length does an incoming req see
system.mem_ctrls3.rdQLenPdf::10                  3881                       # What read queue length does an incoming req see
system.mem_ctrls3.rdQLenPdf::11                  3983                       # What read queue length does an incoming req see
system.mem_ctrls3.rdQLenPdf::12                  3856                       # What read queue length does an incoming req see
system.mem_ctrls3.rdQLenPdf::13                  3817                       # What read queue length does an incoming req see
system.mem_ctrls3.rdQLenPdf::14                  3671                       # What read queue length does an incoming req see
system.mem_ctrls3.rdQLenPdf::15                  3532                       # What read queue length does an incoming req see
system.mem_ctrls3.rdQLenPdf::16                  3488                       # What read queue length does an incoming req see
system.mem_ctrls3.rdQLenPdf::17                  3304                       # What read queue length does an incoming req see
system.mem_ctrls3.rdQLenPdf::18                  3090                       # What read queue length does an incoming req see
system.mem_ctrls3.rdQLenPdf::19                  2980                       # What read queue length does an incoming req see
system.mem_ctrls3.rdQLenPdf::20                  2992                       # What read queue length does an incoming req see
system.mem_ctrls3.rdQLenPdf::21                  2836                       # What read queue length does an incoming req see
system.mem_ctrls3.rdQLenPdf::22                  2830                       # What read queue length does an incoming req see
system.mem_ctrls3.rdQLenPdf::23                  2682                       # What read queue length does an incoming req see
system.mem_ctrls3.rdQLenPdf::24                  2618                       # What read queue length does an incoming req see
[...]
system.ruby.L2Cache_Controller.S_I.Ack_all::total           32                      
system.ruby.L2Cache_Controller.ISS.Mem_Data |       26200      5.17%      5.17% |       15551      3.07%      8.24% |       15578      3.07%     11.31% |       15532      3.06%     14.37% |       15500      3.06%     17.43% |       15481      3.05%     20.48% |       15485      3.05%     23.54% |       15486      3.05%     26.59% |       15580      3.07%     29.67% |       15526      3.06%     32.73% |       15558      3.07%     35.80% |       15479      3.05%     38.85% |       15490      3.06%     41.91% |       15496      3.06%     44.97% |       15507      3.06%     48.02% |       15468      3.05%     51.08% |       15529      3.06%     54.14% |       15470      3.05%     57.19% |       15494      3.06%     60.25% |       15480      3.05%     63.30% |       15494      3.06%     66.36% |       15502      3.06%     69.42% |       15516      3.06%     72.48% |       15496      3.06%     75.53% |       15558      3.07%     78.60% |       15515      3.06%     81.66% |       15495      3.06%     84.72% |       15479      3.05%     87.77% |       15520      3.06%     90.84% |       15480      3.05%     93.89% |       15477      3.05%     96.94% |       15501      3.06%    100.00%
system.ruby.L2Cache_Controller.ISS.Mem_Data::total       506923                      
system.ruby.L2Cache_Controller.IS.Mem_Data |         503      3.21%      3.21% |         453      2.89%      6.09% |         438      2.79%      8.89% |         449      2.86%     11.75% |         450      2.87%     14.62% |         430      2.74%     17.36% |         472      3.01%     20.36% |         491      3.13%     23.49% |         505      3.22%     26.71% |         445      2.84%     29.55% |         487      3.10%     32.65% |         498      3.17%     35.83% |         551      3.51%     39.34% |         523      3.33%     42.67% |         510      3.25%     45.92% |         492      3.14%     49.06% |         515      3.28%     52.34% |         532      3.39%     55.73% |         529      3.37%     59.11% |         483      3.08%     62.18% |         474      3.02%     65.20% |         523      3.33%     68.54% |         477      3.04%     71.58% |         450      2.87%     74.45% |         519      3.31%     77.76% |         578      3.68%     81.44% |         523      3.33%     84.77% |         479      3.05%     87.83% |         457      2.91%     90.74% |         511      3.26%     94.00% |         488      3.11%     97.11% |         454      2.89%    100.00%
system.ruby.L2Cache_Controller.IS.Mem_Data::total        15689                      
system.ruby.L2Cache_Controller.IM.Mem_Data |       24986      3.16%      3.16% |       24665      3.12%      6.28% |       24674      3.12%      9.41% |       24679      3.12%     12.53% |       24670      3.12%     15.65% |       24674      3.12%     18.78% |       24675      3.12%     21.90% |       24666      3.12%     25.02% |       24707      3.13%     28.15% |       24680      3.12%     31.27% |       24663      3.12%     34.40% |       24687      3.12%     37.52% |       24674      3.12%     40.64% |       24671      3.12%     43.77% |       24669      3.12%     46.89% |       24662      3.12%     50.01% |       24714      3.13%     53.14% |       24680      3.12%     56.26% |       24677      3.12%     59.39% |       24675      3.12%     62.51% |       24688      3.12%     65.64% |       24698      3.13%     68.76% |       24670      3.12%     71.88% |       24674      3.12%     75.01% |       24721      3.13%     78.14% |       24680      3.12%     81.26% |       24683      3.12%     84.39% |       24670      3.12%     87.51% |       24671      3.12%     90.63% |       24672      3.12%     93.75% |       24681      3.12%     96.88% |       24668      3.12%    100.00%
system.ruby.L2Cache_Controller.IM.Mem_Data::total       790024                      
system.ruby.L2Cache_Controller.SS_MB.Exclusive_Unblock |           2      4.17%      4.17% |           4      8.33%     12.50% |           5     10.42%     22.92% |           3      6.25%     29.17% |           0      0.00%     29.17% |           0      0.00%     29.17% |           0      0.00%     29.17% |           0      0.00%     29.17% |           1      2.08%     31.25% |           1      2.08%     33.33% |           0      0.00%     33.33% |           1      2.08%     35.42% |           6     12.50%     47.92% |           0      0.00%     47.92% |           2      4.17%     52.08% |           0      0.00%     52.08% |           0      0.00%     52.08% |           0      0.00%     52.08% |           7     14.58%     66.67% |           5     10.42%     77.08% |           1      2.08%     79.17% |           0      0.00%     79.17% |           0      0.00%     79.17% |           0      0.00%     79.17% |           1      2.08%     81.25% |           1      2.08%     83.33% |           1      2.08%     85.42% |           1      2.08%     87.50% |           5     10.42%     97.92% |           0      0.00%     97.92% |           1      2.08%    100.00% |           0      0.00%    100.00%
system.ruby.L2Cache_Controller.SS_MB.Exclusive_Unblock::total           48                      
system.ruby.L2Cache_Controller.MT_MB.L1_PUTX |           7    100.00%    100.00% |           0      0.00%    100.00% |           0      0.00%    100.00% |           0      0.00%    100.00% |           0      0.00%    100.00% |           0      0.00%    100.00% |           0      0.00%    100.00% |           0      0.00%    100.00% |           0      0.00%    100.00% |           0      0.00%    100.00% |           0      0.00%    100.00% |           0      0.00%    100.00% |           0      0.00%    100.00% |           0      0.00%    100.00% |           0      0.00%    100.00% |           0      0.00%    100.00% |           0      0.00%    100.00% |           0      0.00%    100.00% |           0      0.00%    100.00% |           0      0.00%    100.00% |           0      0.00%    100.00% |           0      0.00%    100.00% |           0      0.00%    100.00% |           0      0.00%    100.00% |           0      0.00%    100.00% |           0      0.00%    100.00% |           0      0.00%    100.00% |           0      0.00%    100.00% |           0      0.00%    100.00% |           0      0.00%    100.00% |           0      0.00%    100.00% |           0      0.00%    100.00%
system.ruby.L2Cache_Controller.MT_MB.L1_PUTX::total            7                      
system.ruby.L2Cache_Controller.MT_MB.Exclusive_Unblock |      172126      9.58%      9.58% |       54370      3.02%     12.60% |       49377      2.75%     15.35% |       53088      2.95%     18.30% |       53603      2.98%     21.28% |       49608      2.76%     24.04% |       46072      2.56%     26.61% |       46082      2.56%     29.17% |       51607      2.87%     32.04% |       49941      2.78%     34.82% |       54176      3.01%     37.83% |       51157      2.85%     40.68% |       48415      2.69%     43.37% |       47030      2.62%     45.99% |       47995      2.67%     48.66% |       46729      2.60%     51.26% |       50678      2.82%     54.08% |       48481      2.70%     56.78% |       50011      2.78%     59.56% |       54121      3.01%     62.57% |       54647      3.04%     65.61% |       63499      3.53%     69.14% |       58115      3.23%     72.37% |       53359      2.97%     75.34% |       53599      2.98%     78.32% |       51527      2.87%     81.19% |       52594      2.93%     84.12% |       52398      2.92%     87.03% |       55599      3.09%     90.13% |       55256      3.07%     93.20% |       63560      3.54%     96.74% |       58682      3.26%    100.00%
system.ruby.L2Cache_Controller.MT_MB.Exclusive_Unblock::total      1797502                      
system.ruby.L2Cache_Controller.MT_IIB.WB_Data |           0      0.00%      0.00% |           0      0.00%      0.00% |           1      7.14%      7.14% |           1      7.14%     14.29% |           1      7.14%     21.43% |           0      0.00%     21.43% |           1      7.14%     28.57% |           0      0.00%     28.57% |           1      7.14%     35.71% |           1      7.14%     42.86% |           1      7.14%     50.00% |           1      7.14%     57.14% |           1      7.14%     64.29% |           0      0.00%     64.29% |           1      7.14%     71.43% |           1      7.14%     78.57% |           1      7.14%     85.71% |           1      7.14%     92.86% |           1      7.14%    100.00% |           0      0.00%    100.00% |           0      0.00%    100.00% |           0      0.00%    100.00% |           0      0.00%    100.00% |           0      0.00%    100.00% |           0      0.00%    100.00% |           0      0.00%    100.00% |           0      0.00%    100.00% |           0      0.00%    100.00% |           0      0.00%    100.00% |           0      0.00%    100.00% |           0      0.00%    100.00% |           0      0.00%    100.00%
system.ruby.L2Cache_Controller.MT_IIB.WB_Data::total           14                      
system.ruby.L2Cache_Controller.MT_IIB.WB_Data_clean |           4    100.00%    100.00% |           0      0.00%    100.00% |           0      0.00%    100.00% |           0      0.00%    100.00% |           0      0.00%    100.00% |           0      0.00%    100.00% |           0      0.00%    100.00% |           0      0.00%    100.00% |           0      0.00%    100.00% |           0      0.00%    100.00% |           0      0.00%    100.00% |           0      0.00%    100.00% |           0      0.00%    100.00% |           0      0.00%    100.00% |           0      0.00%    100.00% |           0      0.00%    100.00% |           0      0.00%    100.00% |           0      0.00%    100.00% |           0      0.00%    100.00% |           0      0.00%    100.00% |           0      0.00%    100.00% |           0      0.00%    100.00% |           0      0.00%    100.00% |           0      0.00%    100.00% |           0      0.00%    100.00% |           0      0.00%    100.00% |           0      0.00%    100.00% |           0      0.00%    100.00% |           0      0.00%    100.00% |           0      0.00%    100.00% |           0      0.00%    100.00% |           0      0.00%    100.00%
system.ruby.L2Cache_Controller.MT_IIB.WB_Data_clean::total            4                      
system.ruby.L2Cache_Controller.MT_IIB.Unblock |           0      0.00%      0.00% |           0      0.00%      0.00% |           0      0.00%      0.00% |           0      0.00%      0.00% |           0      0.00%      0.00% |           0      0.00%      0.00% |           0      0.00%      0.00% |           1     50.00%     50.00% |           0      0.00%     50.00% |           0      0.00%     50.00% |           0      0.00%     50.00% |           0      0.00%     50.00% |           0      0.00%     50.00% |           1     50.00%    100.00% |           0      0.00%    100.00% |           0      0.00%    100.00% |           0      0.00%    100.00% |           0      0.00%    100.00% |           0      0.00%    100.00% |           0      0.00%    100.00% |           0      0.00%    100.00% |           0      0.00%    100.00% |           0      0.00%    100.00% |           0      0.00%    100.00% |           0      0.00%    100.00% |           0      0.00%    100.00% |           0      0.00%    100.00% |           0      0.00%    100.00% |           0      0.00%    100.00% |           0      0.00%    100.00% |           0      0.00%    100.00% |           0      0.00%    100.00%
system.ruby.L2Cache_Controller.MT_IIB.Unblock::total            2                      
system.ruby.L2Cache_Controller.MT_IB.WB_Data |           0      0.00%      0.00% |           0      0.00%      0.00% |           0      0.00%      0.00% |           0      0.00%      0.00% |           0      0.00%      0.00% |           0      0.00%      0.00% |           0      0.00%      0.00% |           1     50.00%     50.00% |           0      0.00%     50.00% |           0      0.00%     50.00% |           0      0.00%     50.00% |           0      0.00%     50.00% |           0      0.00%     50.00% |           1     50.00%    100.00% |           0      0.00%    100.00% |           0      0.00%    100.00% |           0      0.00%    100.00% |           0      0.00%    100.00% |           0      0.00%    100.00% |           0      0.00%    100.00% |           0      0.00%    100.00% |           0      0.00%    100.00% |           0      0.00%    100.00% |           0      0.00%    100.00% |           0      0.00%    100.00% |           0      0.00%    100.00% |           0      0.00%    100.00% |           0      0.00%    100.00% |           0      0.00%    100.00% |           0      0.00%    100.00% |           0      0.00%    100.00% |           0      0.00%    100.00%
system.ruby.L2Cache_Controller.MT_IB.WB_Data::total            2                      
system.ruby.L2Cache_Controller.MT_SB.Unblock |           4     22.22%     22.22% |           0      0.00%     22.22% |           1      5.56%     27.78% |           1      5.56%     33.33% |           1      5.56%     38.89% |           0      0.00%     38.89% |           1      5.56%     44.44% |           0      0.00%     44.44% |           1      5.56%     50.00% |           1      5.56%     55.56% |           1      5.56%     61.11% |           1      5.56%     66.67% |           1      5.56%     72.22% |           0      0.00%     72.22% |           1      5.56%     77.78% |           1      5.56%     83.33% |           1      5.56%     88.89% |           1      5.56%     94.44% |           1      5.56%    100.00% |           0      0.00%    100.00% |           0      0.00%    100.00% |           0      0.00%    100.00% |           0      0.00%    100.00% |           0      0.00%    100.00% |           0      0.00%    100.00% |           0      0.00%    100.00% |           0      0.00%    100.00% |           0      0.00%    100.00% |           0      0.00%    100.00% |           0      0.00%    100.00% |           0      0.00%    100.00% |           0      0.00%    100.00%
system.ruby.L2Cache_Controller.MT_SB.Unblock::total           18                      
system.ruby.SimicsNetworkPortInterface_Controller.MessageSend |       38012     12.82%     12.82% |      148234     50.00%     62.82% |        4652      1.57%     64.39% |        3822      1.29%     65.68% |        4716      1.59%     67.27% |        3913      1.32%     68.59% |        4753      1.60%     70.19% |        4965      1.67%     71.87% |        3224      1.09%     72.96% |        3380      1.14%     74.10% |        4229      1.43%     75.52% |        3387      1.14%     76.66% |        3554      1.20%     77.86% |        3356      1.13%     79.00% |        3048      1.03%     80.02% |        4179      1.41%     81.43% |        4398      1.48%     82.92% |        3560      1.20%     84.12% |        4407      1.49%     85.60% |        3195      1.08%     86.68% |        3208      1.08%     87.76% |        3303      1.11%     88.88% |        3122      1.05%     89.93% |        2999      1.01%     90.94% |        3265      1.10%     92.04% |        3386      1.14%     93.19% |        3301      1.11%     94.30% |        3112      1.05%     95.35% |        3319      1.12%     96.47% |        3447      1.16%     97.63% |        3433      1.16%     98.79% |        3589      1.21%    100.00%
system.ruby.SimicsNetworkPortInterface_Controller.MessageSend::total       296468                      
system.ruby.SimicsNetworkPortInterface_Controller.MessageRecv |       38012     12.82%     12.82% |      148234     50.00%     62.82% |        4652      1.57%     64.39% |        3822      1.29%     65.68% |        4716      1.59%     67.27% |        3913      1.32%     68.59% |        4753      1.60%     70.19% |        4965      1.67%     71.87% |        3224      1.09%     72.96% |        3380      1.14%     74.10% |        4229      1.43%     75.52% |        3387      1.14%     76.66% |        3554      1.20%     77.86% |        3356      1.13%     79.00% |        3048      1.03%     80.02% |        4179      1.41%     81.43% |        4398      1.48%     82.92% |        3560      1.20%     84.12% |        4407      1.49%     85.60% |        3195      1.08%     86.68% |        3208      1.08%     87.76% |        3303      1.11%     88.88% |        3122      1.05%     89.93% |        2999      1.01%     90.94% |        3265      1.10%     92.04% |        3386      1.14%     93.19% |        3301      1.11%     94.30% |        3112      1.05%     95.35% |        3319      1.12%     96.47% |        3447      1.16%     97.63% |        3433      1.16%     98.79% |        3589      1.21%    100.00%
system.ruby.SimicsNetworkPortInterface_Controller.MessageRecv::total       296468                      
system.ruby.SimicsNetworkPortInterface_Controller.A.MessageSend |       38012     12.82%     12.82% |      148234     50.00%     62.82% |        4652      1.57%     64.39% |        3822      1.29%     65.68% |        4716      1.59%     67.27% |        3913      1.32%     68.59% |        4753      1.60%     70.19% |        4965      1.67%     71.87% |        3224      1.09%     72.96% |        3380      1.14%     74.10% |        4229      1.43%     75.52% |        3387      1.14%     76.66% |        3554      1.20%     77.86% |        3356      1.13%     79.00% |        3048      1.03%     80.02% |        4179      1.41%     81.43% |        4398      1.48%     82.92% |        3560      1.20%     84.12% |        4407      1.49%     85.60% |        3195      1.08%     86.68% |        3208      1.08%     87.76% |        3303      1.11%     88.88% |        3122      1.05%     89.93% |        2999      1.01%     90.94% |        3265      1.10%     92.04% |        3386      1.14%     93.19% |        3301      1.11%     94.30% |        3112      1.05%     95.35% |        3319      1.12%     96.47% |        3447      1.16%     97.63% |        3433      1.16%     98.79% |        3589      1.21%    100.00%
system.ruby.SimicsNetworkPortInterface_Controller.A.MessageSend::total       296468                      
system.ruby.SimicsNetworkPortInterface_Controller.A.MessageRecv |       38012     12.82%     12.82% |      148234     50.00%     62.82% |        4652      1.57%     64.39% |        3822      1.29%     65.68% |        4716      1.59%     67.27% |        3913      1.32%     68.59% |        4753      1.60%     70.19% |        4965      1.67%     71.87% |        3224      1.09%     72.96% |        3380      1.14%     74.10% |        4229      1.43%     75.52% |        3387      1.14%     76.66% |        3554      1.20%     77.86% |        3356      1.13%     79.00% |        3048      1.03%     80.02% |        4179      1.41%     81.43% |        4398      1.48%     82.92% |        3560      1.20%     84.12% |        4407      1.49%     85.60% |        3195      1.08%     86.68% |        3208      1.08%     87.76% |        3303      1.11%     88.88% |        3122      1.05%     89.93% |        2999      1.01%     90.94% |        3265      1.10%     92.04% |        3386      1.14%     93.19% |        3301      1.11%     94.30% |        3112      1.05%     95.35% |        3319      1.12%     96.47% |        3447      1.16%     97.63% |        3433      1.16%     98.79% |        3589      1.21%    100.00%
system.ruby.SimicsNetworkPortInterface_Controller.A.MessageRecv::total       296468                      
system.switch_cpus.kern.inst.arm                    0                       # number of arm instructions executed
system.switch_cpus.kern.inst.quiesce                0                       # number of quiesce instructions executed

---------- End Simulation Statistics   ----------
