
---------- Begin Simulation Statistics ----------
sim_seconds                                  0.059787                       # Number of seconds simulated
sim_ticks                                 59787165500                       # Number of ticks simulated
final_tick                               5235955244000                       # Number of ticks from beginning of simulation (restored from checkpoints and never reset)
sim_freq                                 1000000000000                       # Frequency of simulated ticks
host_inst_rate                                  21158                       # Simulator instruction rate (inst/s)
host_op_rate                                    37637                       # Simulator op (including micro ops) rate (op/s)
host_tick_rate                               31797961                       # Simulator tick rate (ticks/s)
host_mem_usage                                4818660                       # Number of bytes of host memory used
host_seconds                                  1880.22                       # Real time elapsed on the host
sim_insts                                    39782536                       # Number of instructions simulated
sim_ops                                      70766602                       # Number of ops (including micro ops) simulated
system.voltage_domain.voltage                       1                       # Voltage in Volts
system.clk_domain.clock                           500                       # Clock period in ticks
system.mem_ctrls0.bytes_read::ruby.dir_cntrl0     14034304                       # Number of bytes read from this memory
system.mem_ctrls0.bytes_read::total          14034304                       # Number of bytes read from this memory
system.mem_ctrls0.bytes_written::ruby.dir_cntrl0      4007552                       # Number of bytes written to this memory
system.mem_ctrls0.bytes_written::total        4007552                       # Number of bytes written to this memory
system.mem_ctrls0.num_reads::ruby.dir_cntrl0       219286                       # Number of read requests responded to by this memory
system.mem_ctrls0.num_reads::total             219286                       # Number of read requests responded to by this memory
system.mem_ctrls0.num_writes::ruby.dir_cntrl0        62618                       # Number of write requests responded to by this memory
system.mem_ctrls0.num_writes::total             62618                       # Number of write requests responded to by this memory
system.mem_ctrls0.bw_read::ruby.dir_cntrl0    234737738                       # Total read bandwidth from this memory (bytes/s)
system.mem_ctrls0.bw_read::total            234737738                       # Total read bandwidth from this memory (bytes/s)
system.mem_ctrls0.bw_write::ruby.dir_cntrl0     67030306                       # Write bandwidth from this memory (bytes/s)
system.mem_ctrls0.bw_write::total            67030306                       # Write bandwidth from this memory (bytes/s)
system.mem_ctrls0.bw_total::ruby.dir_cntrl0    301768044                       # Total bandwidth to/from this memory (bytes/s)
system.mem_ctrls0.bw_total::total           301768044                       # Total bandwidth to/from this memory (bytes/s)
system.mem_ctrls0.readReqs                     219286                       # Number of read requests accepted
system.mem_ctrls0.writeReqs                     62618                       # Number of write requests accepted
system.mem_ctrls0.readBursts                   219286                       # Number of DRAM read bursts, including those serviced by the write queue
system.mem_ctrls0.writeBursts                   62618                       # Number of DRAM write bursts, including those merged in the write queue
system.mem_ctrls0.bytesReadDRAM              14032832                       # Total number of bytes read from DRAM
system.mem_ctrls0.bytesReadWrQ                   1472                       # Total number of bytes read from write queue
system.mem_ctrls0.bytesWritten                4007360                       # Total number of bytes written to DRAM
system.mem_ctrls0.bytesReadSys               14034304                       # Total read bytes from the system interface side
system.mem_ctrls0.bytesWrittenSys             4007552                       # Total written bytes from the system interface side
system.mem_ctrls0.servicedByWrQ                    23                       # Number of DRAM read bursts serviced by the write queue
system.mem_ctrls0.mergedWrBursts                    0                       # Number of DRAM write bursts merged with an existing one
system.mem_ctrls0.neitherReadNorWriteReqs            0                       # Number of requests that are neither read nor write
system.mem_ctrls0.perBankRdBursts::0            13461                       # Per bank write bursts
system.mem_ctrls0.perBankRdBursts::1            13998                       # Per bank write bursts
system.mem_ctrls0.perBankRdBursts::2            13664                       # Per bank write bursts
system.mem_ctrls0.perBankRdBursts::3            14063                       # Per bank write bursts
system.mem_ctrls0.perBankRdBursts::4            13702                       # Per bank write bursts
system.mem_ctrls0.perBankRdBursts::5            14284                       # Per bank write bursts
system.mem_ctrls0.perBankRdBursts::6            13743                       # Per bank write bursts
system.mem_ctrls0.perBankRdBursts::7            13669                       # Per bank write bursts
system.mem_ctrls0.perBankRdBursts::8            13562                       # Per bank write bursts
system.mem_ctrls0.perBankRdBursts::9            13898                       # Per bank write bursts
system.mem_ctrls0.perBankRdBursts::10           13605                       # Per bank write bursts
system.mem_ctrls0.perBankRdBursts::11           13838                       # Per bank write bursts
system.mem_ctrls0.perBankRdBursts::12           13385                       # Per bank write bursts
system.mem_ctrls0.perBankRdBursts::13           13262                       # Per bank write bursts
system.mem_ctrls0.perBankRdBursts::14           13559                       # Per bank write bursts
system.mem_ctrls0.perBankRdBursts::15           13570                       # Per bank write bursts
system.mem_ctrls0.perBankWrBursts::0             3845                       # Per bank write bursts
system.mem_ctrls0.perBankWrBursts::1             3927                       # Per bank write bursts
system.mem_ctrls0.perBankWrBursts::2             3906                       # Per bank write bursts
system.mem_ctrls0.perBankWrBursts::3             4132                       # Per bank write bursts
system.mem_ctrls0.perBankWrBursts::4             3927                       # Per bank write bursts
system.mem_ctrls0.perBankWrBursts::5             4075                       # Per bank write bursts
system.mem_ctrls0.perBankWrBursts::6             3983                       # Per bank write bursts
system.mem_ctrls0.perBankWrBursts::7             3947                       # Per bank write bursts
system.mem_ctrls0.perBankWrBursts::8             3818                       # Per bank write bursts
system.mem_ctrls0.perBankWrBursts::9             4072                       # Per bank write bursts
system.mem_ctrls0.perBankWrBursts::10            3841                       # Per bank write bursts
system.mem_ctrls0.perBankWrBursts::11            3777                       # Per bank write bursts
system.mem_ctrls0.perBankWrBursts::12            3724                       # Per bank write bursts
system.mem_ctrls0.perBankWrBursts::13            3759                       # Per bank write bursts
system.mem_ctrls0.perBankWrBursts::14            4009                       # Per bank write bursts
system.mem_ctrls0.perBankWrBursts::15            3873                       # Per bank write bursts
system.mem_ctrls0.numRdRetry                      714                       # Number of times read queue was full causing retry
system.mem_ctrls0.numWrRetry                      350                       # Number of times write queue was full causing retry
system.mem_ctrls0.totGap                  59786773000                       # Total gap between requests
system.mem_ctrls0.readPktSize::0                    0                       # Read request sizes (log2)
system.mem_ctrls0.readPktSize::1                    0                       # Read request sizes (log2)
system.mem_ctrls0.readPktSize::2                    0                       # Read request sizes (log2)
system.mem_ctrls0.readPktSize::3                    0                       # Read request sizes (log2)
system.mem_ctrls0.readPktSize::4                    0                       # Read request sizes (log2)
system.mem_ctrls0.readPktSize::5                    0                       # Read request sizes (log2)
system.mem_ctrls0.readPktSize::6               219286                       # Read request sizes (log2)
system.mem_ctrls0.writePktSize::0                   0                       # Write request sizes (log2)
system.mem_ctrls0.writePktSize::1                   0                       # Write request sizes (log2)
system.mem_ctrls0.writePktSize::2                   0                       # Write request sizes (log2)
system.mem_ctrls0.writePktSize::3                   0                       # Write request sizes (log2)
system.mem_ctrls0.writePktSize::4                   0                       # Write request sizes (log2)
system.mem_ctrls0.writePktSize::5                   0                       # Write request sizes (log2)
system.mem_ctrls0.writePktSize::6               62618                       # Write request sizes (log2)
system.mem_ctrls0.rdQLenPdf::0                 160342                       # What read queue length does an incoming req see
system.mem_ctrls0.rdQLenPdf::1                  42491                       # What read queue length does an incoming req see
system.mem_ctrls0.rdQLenPdf::2                  11472                       # What read queue length does an incoming req see
system.mem_ctrls0.rdQLenPdf::3                   2671                       # What read queue length does an incoming req see
system.mem_ctrls0.rdQLenPdf::4                    604                       # What read queue length does an incoming req see
system.mem_ctrls0.rdQLenPdf::5                    159                       # What read queue length does an incoming req see
system.mem_ctrls0.rdQLenPdf::6                     87                       # What read queue length does an incoming req see
system.mem_ctrls0.rdQLenPdf::7                     54                       # What read queue length does an incoming req see
system.mem_ctrls0.rdQLenPdf::8                     50                       # What read queue length does an incoming req see
system.mem_ctrls0.rdQLenPdf::9                     44                       # What read queue length does an incoming req see
system.mem_ctrls0.rdQLenPdf::10                    39                       # What read queue length does an incoming req see
system.mem_ctrls0.rdQLenPdf::11                    29                       # What read queue length does an incoming req see
system.mem_ctrls0.rdQLenPdf::12                    21                       # What read queue length does an incoming req see
system.mem_ctrls0.rdQLenPdf::13                    16                       # What read queue length does an incoming req see
system.mem_ctrls0.rdQLenPdf::14                    21                       # What read queue length does an incoming req see
system.mem_ctrls0.rdQLenPdf::15                    16                       # What read queue length does an incoming req see
system.mem_ctrls0.rdQLenPdf::16                    14                       # What read queue length does an incoming req see
system.mem_ctrls0.rdQLenPdf::17                    20                       # What read queue length does an incoming req see
system.mem_ctrls0.rdQLenPdf::18                    18                       # What read queue length does an incoming req see
system.mem_ctrls0.rdQLenPdf::19                    25                       # What read queue length does an incoming req see
system.mem_ctrls0.rdQLenPdf::20                    36                       # What read queue length does an incoming req see
system.mem_ctrls0.rdQLenPdf::21                    18                       # What read queue length does an incoming req see
system.mem_ctrls0.rdQLenPdf::22                    21                       # What read queue length does an incoming req see
system.mem_ctrls0.rdQLenPdf::23                    15                       # What read queue length does an incoming req see
system.mem_ctrls0.rdQLenPdf::24                    12                       # What read queue length does an incoming req see
system.mem_ctrls0.rdQLenPdf::25                    15                       # What read queue length does an incoming req see
system.mem_ctrls0.rdQLenPdf::26                    16                       # What read queue length does an incoming req see
system.mem_ctrls0.rdQLenPdf::27                    20                       # What read queue length does an incoming req see
system.mem_ctrls0.rdQLenPdf::28                    35                       # What read queue length does an incoming req see
system.mem_ctrls0.rdQLenPdf::29                    49                       # What read queue length does an incoming req see
system.mem_ctrls0.rdQLenPdf::30                    49                       # What read queue length does an incoming req see
system.mem_ctrls0.rdQLenPdf::31                   784                       # What read queue length does an incoming req see
system.mem_ctrls0.wrQLenPdf::0                  12209                       # What write queue length does an incoming req see
system.mem_ctrls0.wrQLenPdf::1                  12402                       # What write queue length does an incoming req see
system.mem_ctrls0.wrQLenPdf::2                  12374                       # What write queue length does an incoming req see
system.mem_ctrls0.wrQLenPdf::3                  12353                       # What write queue length does an incoming req see
system.mem_ctrls0.wrQLenPdf::4                  12340                       # What write queue length does an incoming req see
system.mem_ctrls0.wrQLenPdf::5                    227                       # What write queue length does an incoming req see
system.mem_ctrls0.wrQLenPdf::6                    163                       # What write queue length does an incoming req see
system.mem_ctrls0.wrQLenPdf::7                    550                       # What write queue length does an incoming req see
system.mem_ctrls0.bytesPerActivate::samples        85812                       # Bytes accessed per row activation
system.mem_ctrls0.bytesPerActivate::mean   210.221787                       # Bytes accessed per row activation
system.mem_ctrls0.bytesPerActivate::gmean   135.435388                       # Bytes accessed per row activation
system.mem_ctrls0.bytesPerActivate::stdev   238.930255                       # Bytes accessed per row activation
system.mem_ctrls0.bytesPerActivate::0-127        41830     48.75%     48.75% # Bytes accessed per row activation
system.mem_ctrls0.bytesPerActivate::128-255        17777     20.72%     69.46% # Bytes accessed per row activation
system.mem_ctrls0.bytesPerActivate::256-383        14910     17.38%     86.84% # Bytes accessed per row activation
system.mem_ctrls0.bytesPerActivate::384-511         2606      3.04%     89.87% # Bytes accessed per row activation
system.mem_ctrls0.bytesPerActivate::512-639         1792      2.09%     91.96% # Bytes accessed per row activation
system.mem_ctrls0.bytesPerActivate::640-767         1318      1.54%     93.50% # Bytes accessed per row activation
system.mem_ctrls0.bytesPerActivate::768-895         1089      1.27%     94.77% # Bytes accessed per row activation
system.mem_ctrls0.bytesPerActivate::896-1023          907      1.06%     95.82% # Bytes accessed per row activation
system.mem_ctrls0.bytesPerActivate::1024-1151         3583      4.18%    100.00% # Bytes accessed per row activation
system.mem_ctrls0.bytesPerActivate::total        85812                       # Bytes accessed per row activation
system.mem_ctrls0.rdPerTurnAround::samples        12250                       # Reads before turning the bus around for writes
system.mem_ctrls0.rdPerTurnAround::mean     17.740082                       # Reads before turning the bus around for writes
system.mem_ctrls0.rdPerTurnAround::stdev    76.492636                       # Reads before turning the bus around for writes
system.mem_ctrls0.rdPerTurnAround::0-127        11901     97.15%     97.15% # Reads before turning the bus around for writes
system.mem_ctrls0.rdPerTurnAround::128-255          181      1.48%     98.63% # Reads before turning the bus around for writes
system.mem_ctrls0.rdPerTurnAround::256-383           68      0.56%     99.18% # Reads before turning the bus around for writes
system.mem_ctrls0.rdPerTurnAround::384-511           48      0.39%     99.58% # Reads before turning the bus around for writes
system.mem_ctrls0.rdPerTurnAround::512-639           22      0.18%     99.76% # Reads before turning the bus around for writes
system.mem_ctrls0.rdPerTurnAround::640-767           17      0.14%     99.89% # Reads before turning the bus around for writes
system.mem_ctrls0.rdPerTurnAround::768-895            3      0.02%     99.92% # Reads before turning the bus around for writes
system.mem_ctrls0.rdPerTurnAround::896-1023            4      0.03%     99.95% # Reads before turning the bus around for writes
system.mem_ctrls0.rdPerTurnAround::1024-1151            1      0.01%     99.96% # Reads before turning the bus around for writes
system.mem_ctrls0.rdPerTurnAround::1280-1407            1      0.01%     99.97% # Reads before turning the bus around for writes
system.mem_ctrls0.rdPerTurnAround::1536-1663            1      0.01%     99.98% # Reads before turning the bus around for writes
system.mem_ctrls0.rdPerTurnAround::1792-1919            2      0.02%     99.99% # Reads before turning the bus around for writes
system.mem_ctrls0.rdPerTurnAround::3968-4095            1      0.01%    100.00% # Reads before turning the bus around for writes
system.mem_ctrls0.rdPerTurnAround::total        12250                       # Reads before turning the bus around for writes
system.mem_ctrls0.wrPerTurnAround::samples        12250                       # Writes before turning the bus around for reads
system.mem_ctrls0.wrPerTurnAround::mean      5.111429                       # Writes before turning the bus around for reads
system.mem_ctrls0.wrPerTurnAround::gmean     5.075639                       # Writes before turning the bus around for reads
system.mem_ctrls0.wrPerTurnAround::stdev     0.867728                       # Writes before turning the bus around for reads
system.mem_ctrls0.wrPerTurnAround::4-7          12137     99.08%     99.08% # Writes before turning the bus around for reads
system.mem_ctrls0.wrPerTurnAround::8-11            39      0.32%     99.40% # Writes before turning the bus around for reads
system.mem_ctrls0.wrPerTurnAround::12-15           17      0.14%     99.53% # Writes before turning the bus around for reads
system.mem_ctrls0.wrPerTurnAround::16-19           57      0.47%    100.00% # Writes before turning the bus around for reads
system.mem_ctrls0.wrPerTurnAround::total        12250                       # Writes before turning the bus around for reads
system.mem_ctrls0.totQLat                  3035589030                       # Total ticks spent queuing
system.mem_ctrls0.totMemAccLat             7146770280                       # Total ticks spent from burst creation until serviced by the DRAM
system.mem_ctrls0.totBusLat                1096315000                       # Total ticks spent in databus transfers
system.mem_ctrls0.avgQLat                    13844.51                       # Average queueing delay per DRAM burst
system.mem_ctrls0.avgBusLat                   5000.00                       # Average bus latency per DRAM burst
system.mem_ctrls0.avgMemAccLat               32594.51                       # Average memory access latency per DRAM burst
system.mem_ctrls0.avgRdBW                      234.71                       # Average DRAM read bandwidth in MiByte/s
system.mem_ctrls0.avgWrBW                       67.03                       # Average achieved write bandwidth in MiByte/s
system.mem_ctrls0.avgRdBWSys                   234.74                       # Average system read bandwidth in MiByte/s
system.mem_ctrls0.avgWrBWSys                    67.03                       # Average system write bandwidth in MiByte/s
system.mem_ctrls0.peakBW                     12800.00                       # Theoretical peak bandwidth in MiByte/s
system.mem_ctrls0.busUtil                        2.36                       # Data bus utilization in percentage
system.mem_ctrls0.busUtilRead                    1.83                       # Data bus utilization in percentage for reads
system.mem_ctrls0.busUtilWrite                   0.52                       # Data bus utilization in percentage for writes
system.mem_ctrls0.avgRdQLen                      1.12                       # Average read queue length when enqueuing
system.mem_ctrls0.avgWrQLen                      2.87                       # Average write queue length when enqueuing
system.mem_ctrls0.readRowHits                  157536                       # Number of row buffer hits during reads
system.mem_ctrls0.writeRowHits                  38524                       # Number of row buffer hits during writes
system.mem_ctrls0.readRowHitRate                71.85                       # Row buffer hit rate for reads
system.mem_ctrls0.writeRowHitRate               61.52                       # Row buffer hit rate for writes
system.mem_ctrls0.avgGap                    212082.03                       # Average gap between requests
system.mem_ctrls0.pageHitRate                   69.55                       # Row buffer hit rate, read and write combined
system.mem_ctrls0.memoryStateTime::IDLE   10794344500                       # Time in different power states
system.mem_ctrls0.memoryStateTime::REF     1996280000                       # Time in different power states
system.mem_ctrls0.memoryStateTime::PRE_PDN            0                       # Time in different power states
system.mem_ctrls0.memoryStateTime::ACT    46992655000                       # Time in different power states
system.mem_ctrls0.memoryStateTime::ACT_PDN            0                       # Time in different power states
system.mem_ctrls0.actEnergy::0              327453840                       # Energy for activate commands per rank (pJ)
system.mem_ctrls0.actEnergy::1              321254640                       # Energy for activate commands per rank (pJ)
system.mem_ctrls0.preEnergy::0              178670250                       # Energy for precharge commands per rank (pJ)
system.mem_ctrls0.preEnergy::1              175287750                       # Energy for precharge commands per rank (pJ)
system.mem_ctrls0.readEnergy::0             862485000                       # Energy for read commands per rank (pJ)
system.mem_ctrls0.readEnergy::1             847649400                       # Energy for read commands per rank (pJ)
system.mem_ctrls0.writeEnergy::0            205688160                       # Energy for write commands per rank (pJ)
system.mem_ctrls0.writeEnergy::1            200057040                       # Energy for write commands per rank (pJ)
system.mem_ctrls0.refreshEnergy::0         3904723680                       # Energy for refresh commands per rank (pJ)
system.mem_ctrls0.refreshEnergy::1         3904723680                       # Energy for refresh commands per rank (pJ)
system.mem_ctrls0.actBackEnergy::0        25639395435                       # Energy for active background per rank (pJ)
system.mem_ctrls0.actBackEnergy::1        24935552595                       # Energy for active background per rank (pJ)
system.mem_ctrls0.preBackEnergy::0        13379154750                       # Energy for precharge background per rank (pJ)
system.mem_ctrls0.preBackEnergy::1        13996560750                       # Energy for precharge background per rank (pJ)
system.mem_ctrls0.totalEnergy::0          44497571115                       # Total energy per rank (pJ)
system.mem_ctrls0.totalEnergy::1          44381085855                       # Total energy per rank (pJ)
system.mem_ctrls0.averagePower::0          744.317046                       # Core power per rank (mW)
system.mem_ctrls0.averagePower::1          742.368581                       # Core power per rank (mW)
system.mem_ctrls1.bytes_read::ruby.dir_cntrl1     13851328                       # Number of bytes read from this memory
system.mem_ctrls1.bytes_read::total          13851328                       # Number of bytes read from this memory
system.mem_ctrls1.bytes_written::ruby.dir_cntrl1      3840704                       # Number of bytes written to this memory
system.mem_ctrls1.bytes_written::total        3840704                       # Number of bytes written to this memory
system.mem_ctrls1.num_reads::ruby.dir_cntrl1       216427                       # Number of read requests responded to by this memory
system.mem_ctrls1.num_reads::total             216427                       # Number of read requests responded to by this memory
system.mem_ctrls1.num_writes::ruby.dir_cntrl1        60011                       # Number of write requests responded to by this memory
system.mem_ctrls1.num_writes::total             60011                       # Number of write requests responded to by this memory
system.mem_ctrls1.bw_read::ruby.dir_cntrl1    231677282                       # Total read bandwidth from this memory (bytes/s)
system.mem_ctrls1.bw_read::total            231677282                       # Total read bandwidth from this memory (bytes/s)
system.mem_ctrls1.bw_write::ruby.dir_cntrl1     64239607                       # Write bandwidth from this memory (bytes/s)
system.mem_ctrls1.bw_write::total            64239607                       # Write bandwidth from this memory (bytes/s)
system.mem_ctrls1.bw_total::ruby.dir_cntrl1    295916889                       # Total bandwidth to/from this memory (bytes/s)
system.mem_ctrls1.bw_total::total           295916889                       # Total bandwidth to/from this memory (bytes/s)
system.mem_ctrls1.readReqs                     216427                       # Number of read requests accepted
system.mem_ctrls1.writeReqs                     60011                       # Number of write requests accepted
system.mem_ctrls1.readBursts                   216427                       # Number of DRAM read bursts, including those serviced by the write queue
system.mem_ctrls1.writeBursts                   60011                       # Number of DRAM write bursts, including those merged in the write queue
system.mem_ctrls1.bytesReadDRAM              13849920                       # Total number of bytes read from DRAM
system.mem_ctrls1.bytesReadWrQ                   1408                       # Total number of bytes read from write queue
system.mem_ctrls1.bytesWritten                3840512                       # Total number of bytes written to DRAM
system.mem_ctrls1.bytesReadSys               13851328                       # Total read bytes from the system interface side
system.mem_ctrls1.bytesWrittenSys             3840704                       # Total written bytes from the system interface side
system.mem_ctrls1.servicedByWrQ                    22                       # Number of DRAM read bursts serviced by the write queue
system.mem_ctrls1.mergedWrBursts                    0                       # Number of DRAM write bursts merged with an existing one
system.mem_ctrls1.neitherReadNorWriteReqs            0                       # Number of requests that are neither read nor write
system.mem_ctrls1.perBankRdBursts::0            13290                       # Per bank write bursts
system.mem_ctrls1.perBankRdBursts::1            13819                       # Per bank write bursts
system.mem_ctrls1.perBankRdBursts::2            13485                       # Per bank write bursts
system.mem_ctrls1.perBankRdBursts::3            13893                       # Per bank write bursts
system.mem_ctrls1.perBankRdBursts::4            13534                       # Per bank write bursts
system.mem_ctrls1.perBankRdBursts::5            14119                       # Per bank write bursts
system.mem_ctrls1.perBankRdBursts::6            13534                       # Per bank write bursts
system.mem_ctrls1.perBankRdBursts::7            13510                       # Per bank write bursts
system.mem_ctrls1.perBankRdBursts::8            13402                       # Per bank write bursts
system.mem_ctrls1.perBankRdBursts::9            13712                       # Per bank write bursts
system.mem_ctrls1.perBankRdBursts::10           13419                       # Per bank write bursts
system.mem_ctrls1.perBankRdBursts::11           13657                       # Per bank write bursts
system.mem_ctrls1.perBankRdBursts::12           13211                       # Per bank write bursts
system.mem_ctrls1.perBankRdBursts::13           13105                       # Per bank write bursts
system.mem_ctrls1.perBankRdBursts::14           13294                       # Per bank write bursts
system.mem_ctrls1.perBankRdBursts::15           13421                       # Per bank write bursts
system.mem_ctrls1.perBankWrBursts::0             3686                       # Per bank write bursts
system.mem_ctrls1.perBankWrBursts::1             3780                       # Per bank write bursts
system.mem_ctrls1.perBankWrBursts::2             3765                       # Per bank write bursts
system.mem_ctrls1.perBankWrBursts::3             3979                       # Per bank write bursts
system.mem_ctrls1.perBankWrBursts::4             3771                       # Per bank write bursts
system.mem_ctrls1.perBankWrBursts::5             3924                       # Per bank write bursts
system.mem_ctrls1.perBankWrBursts::6             3803                       # Per bank write bursts
system.mem_ctrls1.perBankWrBursts::7             3779                       # Per bank write bursts
system.mem_ctrls1.perBankWrBursts::8             3663                       # Per bank write bursts
system.mem_ctrls1.perBankWrBursts::9             3898                       # Per bank write bursts
system.mem_ctrls1.perBankWrBursts::10            3678                       # Per bank write bursts
system.mem_ctrls1.perBankWrBursts::11            3611                       # Per bank write bursts
system.mem_ctrls1.perBankWrBursts::12            3566                       # Per bank write bursts
system.mem_ctrls1.perBankWrBursts::13            3595                       # Per bank write bursts
system.mem_ctrls1.perBankWrBursts::14            3794                       # Per bank write bursts
system.mem_ctrls1.perBankWrBursts::15            3716                       # Per bank write bursts
system.mem_ctrls1.numRdRetry                      484                       # Number of times read queue was full causing retry
system.mem_ctrls1.numWrRetry                      274                       # Number of times write queue was full causing retry
system.mem_ctrls1.totGap                  59786415000                       # Total gap between requests
system.mem_ctrls1.readPktSize::0                    0                       # Read request sizes (log2)
system.mem_ctrls1.readPktSize::1                    0                       # Read request sizes (log2)
system.mem_ctrls1.readPktSize::2                    0                       # Read request sizes (log2)
system.mem_ctrls1.readPktSize::3                    0                       # Read request sizes (log2)
system.mem_ctrls1.readPktSize::4                    0                       # Read request sizes (log2)
system.mem_ctrls1.readPktSize::5                    0                       # Read request sizes (log2)
system.mem_ctrls1.readPktSize::6               216427                       # Read request sizes (log2)
system.mem_ctrls1.writePktSize::0                   0                       # Write request sizes (log2)
system.mem_ctrls1.writePktSize::1                   0                       # Write request sizes (log2)
system.mem_ctrls1.writePktSize::2                   0                       # Write request sizes (log2)
system.mem_ctrls1.writePktSize::3                   0                       # Write request sizes (log2)
system.mem_ctrls1.writePktSize::4                   0                       # Write request sizes (log2)
system.mem_ctrls1.writePktSize::5                   0                       # Write request sizes (log2)
system.mem_ctrls1.writePktSize::6               60011                       # Write request sizes (log2)
system.mem_ctrls1.rdQLenPdf::0                 158183                       # What read queue length does an incoming req see
system.mem_ctrls1.rdQLenPdf::1                  43025                       # What read queue length does an incoming req see
system.mem_ctrls1.rdQLenPdf::2                  10838                       # What read queue length does an incoming req see
system.mem_ctrls1.rdQLenPdf::3                   2385                       # What read queue length does an incoming req see
system.mem_ctrls1.rdQLenPdf::4                    479                       # What read queue length does an incoming req see
system.mem_ctrls1.rdQLenPdf::5                    144                       # What read queue length does an incoming req see
system.mem_ctrls1.rdQLenPdf::6                     75                       # What read queue length does an incoming req see
system.mem_ctrls1.rdQLenPdf::7                     66                       # What read queue length does an incoming req see
system.mem_ctrls1.rdQLenPdf::8                     63                       # What read queue length does an incoming req see
system.mem_ctrls1.rdQLenPdf::9                     67                       # What read queue length does an incoming req see
system.mem_ctrls1.rdQLenPdf::10                    61                       # What read queue length does an incoming req see
system.mem_ctrls1.rdQLenPdf::11                    51                       # What read queue length does an incoming req see
system.mem_ctrls1.rdQLenPdf::12                    56                       # What read queue length does an incoming req see
system.mem_ctrls1.rdQLenPdf::13                    40                       # What read queue length does an incoming req see
system.mem_ctrls1.rdQLenPdf::14                    30                       # What read queue length does an incoming req see
system.mem_ctrls1.rdQLenPdf::15                    35                       # What read queue length does an incoming req see
system.mem_ctrls1.rdQLenPdf::16                    28                       # What read queue length does an incoming req see
system.mem_ctrls1.rdQLenPdf::17                    22                       # What read queue length does an incoming req see
system.mem_ctrls1.rdQLenPdf::18                    22                       # What read queue length does an incoming req see
system.mem_ctrls1.rdQLenPdf::19                    23                       # What read queue length does an incoming req see
system.mem_ctrls1.rdQLenPdf::20                    24                       # What read queue length does an incoming req see
system.mem_ctrls1.rdQLenPdf::21                    16                       # What read queue length does an incoming req see
system.mem_ctrls1.rdQLenPdf::22                    16                       # What read queue length does an incoming req see
system.mem_ctrls1.rdQLenPdf::23                    12                       # What read queue length does an incoming req see
system.mem_ctrls1.rdQLenPdf::24                    13                       # What read queue length does an incoming req see
system.mem_ctrls1.rdQLenPdf::25                    12                       # What read queue length does an incoming req see
system.mem_ctrls1.rdQLenPdf::26                    10                       # What read queue length does an incoming req see
system.mem_ctrls1.rdQLenPdf::27                    13                       # What read queue length does an incoming req see
system.mem_ctrls1.rdQLenPdf::28                    18                       # What read queue length does an incoming req see
system.mem_ctrls1.rdQLenPdf::29                    12                       # What read queue length does an incoming req see
system.mem_ctrls1.rdQLenPdf::30                    17                       # What read queue length does an incoming req see
system.mem_ctrls1.rdQLenPdf::31                   549                       # What read queue length does an incoming req see
system.mem_ctrls1.wrQLenPdf::0                  11702                       # What write queue length does an incoming req see
system.mem_ctrls1.wrQLenPdf::1                  11909                       # What write queue length does an incoming req see
system.mem_ctrls1.wrQLenPdf::2                  11897                       # What write queue length does an incoming req see
system.mem_ctrls1.wrQLenPdf::3                  11845                       # What write queue length does an incoming req see
system.mem_ctrls1.wrQLenPdf::4                  11816                       # What write queue length does an incoming req see
system.mem_ctrls1.wrQLenPdf::5                    222                       # What write queue length does an incoming req see
system.mem_ctrls1.wrQLenPdf::6                    165                       # What write queue length does an incoming req see
system.mem_ctrls1.wrQLenPdf::7                    455                       # What write queue length does an incoming req see
system.mem_ctrls1.bytesPerActivate::samples        81401                       # Bytes accessed per row activation
system.mem_ctrls1.bytesPerActivate::mean   217.312711                       # Bytes accessed per row activation
system.mem_ctrls1.bytesPerActivate::gmean   139.193554                       # Bytes accessed per row activation
system.mem_ctrls1.bytesPerActivate::stdev   244.820621                       # Bytes accessed per row activation
system.mem_ctrls1.bytesPerActivate::0-127        38547     47.35%     47.35% # Bytes accessed per row activation
system.mem_ctrls1.bytesPerActivate::128-255        16950     20.82%     68.18% # Bytes accessed per row activation
system.mem_ctrls1.bytesPerActivate::256-383        14508     17.82%     86.00% # Bytes accessed per row activation
system.mem_ctrls1.bytesPerActivate::384-511         2544      3.13%     89.13% # Bytes accessed per row activation
system.mem_ctrls1.bytesPerActivate::512-639         1837      2.26%     91.38% # Bytes accessed per row activation
system.mem_ctrls1.bytesPerActivate::640-767         1375      1.69%     93.07% # Bytes accessed per row activation
system.mem_ctrls1.bytesPerActivate::768-895         1068      1.31%     94.38% # Bytes accessed per row activation
system.mem_ctrls1.bytesPerActivate::896-1023          945      1.16%     95.54% # Bytes accessed per row activation
system.mem_ctrls1.bytesPerActivate::1024-1151         3627      4.46%    100.00% # Bytes accessed per row activation
system.mem_ctrls1.bytesPerActivate::total        81401                       # Bytes accessed per row activation
system.mem_ctrls1.rdPerTurnAround::samples        11734                       # Reads before turning the bus around for writes
system.mem_ctrls1.rdPerTurnAround::mean     18.278677                       # Reads before turning the bus around for writes
system.mem_ctrls1.rdPerTurnAround::stdev    75.986592                       # Reads before turning the bus around for writes
system.mem_ctrls1.rdPerTurnAround::0-127        11397     97.13%     97.13% # Reads before turning the bus around for writes
system.mem_ctrls1.rdPerTurnAround::128-255          164      1.40%     98.53% # Reads before turning the bus around for writes
system.mem_ctrls1.rdPerTurnAround::256-383           66      0.56%     99.09% # Reads before turning the bus around for writes
system.mem_ctrls1.rdPerTurnAround::384-511           42      0.36%     99.45% # Reads before turning the bus around for writes
system.mem_ctrls1.rdPerTurnAround::512-639           37      0.32%     99.76% # Reads before turning the bus around for writes
system.mem_ctrls1.rdPerTurnAround::640-767           11      0.09%     99.86% # Reads before turning the bus around for writes
system.mem_ctrls1.rdPerTurnAround::768-895            6      0.05%     99.91% # Reads before turning the bus around for writes
system.mem_ctrls1.rdPerTurnAround::896-1023            4      0.03%     99.94% # Reads before turning the bus around for writes
system.mem_ctrls1.rdPerTurnAround::1152-1279            2      0.02%     99.96% # Reads before turning the bus around for writes
system.mem_ctrls1.rdPerTurnAround::1408-1535            1      0.01%     99.97% # Reads before turning the bus around for writes
system.mem_ctrls1.rdPerTurnAround::1664-1791            1      0.01%     99.97% # Reads before turning the bus around for writes
system.mem_ctrls1.rdPerTurnAround::1792-1919            2      0.02%     99.99% # Reads before turning the bus around for writes
system.mem_ctrls1.rdPerTurnAround::2816-2943            1      0.01%    100.00% # Reads before turning the bus around for writes
system.mem_ctrls1.rdPerTurnAround::total        11734                       # Reads before turning the bus around for writes
system.mem_ctrls1.wrPerTurnAround::samples        11734                       # Writes before turning the bus around for reads
system.mem_ctrls1.wrPerTurnAround::mean      5.114028                       # Writes before turning the bus around for reads
system.mem_ctrls1.wrPerTurnAround::gmean     5.079658                       # Writes before turning the bus around for reads
system.mem_ctrls1.wrPerTurnAround::stdev     0.836371                       # Writes before turning the bus around for reads
system.mem_ctrls1.wrPerTurnAround::4-7          11616     98.99%     98.99% # Writes before turning the bus around for reads
system.mem_ctrls1.wrPerTurnAround::8-11            52      0.44%     99.44% # Writes before turning the bus around for reads
system.mem_ctrls1.wrPerTurnAround::12-15           25      0.21%     99.65% # Writes before turning the bus around for reads
system.mem_ctrls1.wrPerTurnAround::16-19           41      0.35%    100.00% # Writes before turning the bus around for reads
system.mem_ctrls1.wrPerTurnAround::total        11734                       # Writes before turning the bus around for reads
system.mem_ctrls1.totQLat                  2845585859                       # Total ticks spent queuing
system.mem_ctrls1.totMemAccLat             6903179609                       # Total ticks spent from burst creation until serviced by the DRAM
system.mem_ctrls1.totBusLat                1082025000                       # Total ticks spent in databus transfers
system.mem_ctrls1.avgQLat                    13149.35                       # Average queueing delay per DRAM burst
system.mem_ctrls1.avgBusLat                   5000.00                       # Average bus latency per DRAM burst
system.mem_ctrls1.avgMemAccLat               31899.35                       # Average memory access latency per DRAM burst
system.mem_ctrls1.avgRdBW                      231.65                       # Average DRAM read bandwidth in MiByte/s
system.mem_ctrls1.avgWrBW                       64.24                       # Average achieved write bandwidth in MiByte/s
system.mem_ctrls1.avgRdBWSys                   231.68                       # Average system read bandwidth in MiByte/s
system.mem_ctrls1.avgWrBWSys                    64.24                       # Average system write bandwidth in MiByte/s
system.mem_ctrls1.peakBW                     12800.00                       # Theoretical peak bandwidth in MiByte/s
system.mem_ctrls1.busUtil                        2.31                       # Data bus utilization in percentage
system.mem_ctrls1.busUtilRead                    1.81                       # Data bus utilization in percentage for reads
system.mem_ctrls1.busUtilWrite                   0.50                       # Data bus utilization in percentage for writes
system.mem_ctrls1.avgRdQLen                      1.10                       # Average read queue length when enqueuing
system.mem_ctrls1.avgWrQLen                      2.91                       # Average write queue length when enqueuing
system.mem_ctrls1.readRowHits                  156118                       # Number of row buffer hits during reads
system.mem_ctrls1.writeRowHits                  38888                       # Number of row buffer hits during writes
system.mem_ctrls1.readRowHitRate                72.14                       # Row buffer hit rate for reads
system.mem_ctrls1.writeRowHitRate               64.80                       # Row buffer hit rate for writes
system.mem_ctrls1.avgGap                    216274.23                       # Average gap between requests
system.mem_ctrls1.pageHitRate                   70.55                       # Row buffer hit rate, read and write combined
system.mem_ctrls1.memoryStateTime::IDLE   11223750750                       # Time in different power states
system.mem_ctrls1.memoryStateTime::REF     1996280000                       # Time in different power states
system.mem_ctrls1.memoryStateTime::PRE_PDN            0                       # Time in different power states
system.mem_ctrls1.memoryStateTime::ACT    46564049750                       # Time in different power states
system.mem_ctrls1.memoryStateTime::ACT_PDN            0                       # Time in different power states
system.mem_ctrls1.actEnergy::0              310852080                       # Energy for activate commands per rank (pJ)
system.mem_ctrls1.actEnergy::1              304539480                       # Energy for activate commands per rank (pJ)
system.mem_ctrls1.preEnergy::0              169611750                       # Energy for precharge commands per rank (pJ)
system.mem_ctrls1.preEnergy::1              166167375                       # Energy for precharge commands per rank (pJ)
system.mem_ctrls1.readEnergy::0             851565000                       # Energy for read commands per rank (pJ)
system.mem_ctrls1.readEnergy::1             836277000                       # Energy for read commands per rank (pJ)
system.mem_ctrls1.writeEnergy::0            197555760                       # Energy for write commands per rank (pJ)
system.mem_ctrls1.writeEnergy::1            191296080                       # Energy for write commands per rank (pJ)
system.mem_ctrls1.refreshEnergy::0         3904723680                       # Energy for refresh commands per rank (pJ)
system.mem_ctrls1.refreshEnergy::1         3904723680                       # Energy for refresh commands per rank (pJ)
system.mem_ctrls1.actBackEnergy::0        25333837245                       # Energy for active background per rank (pJ)
system.mem_ctrls1.actBackEnergy::1        24362736795                       # Energy for active background per rank (pJ)
system.mem_ctrls1.preBackEnergy::0        13647188250                       # Energy for precharge background per rank (pJ)
system.mem_ctrls1.preBackEnergy::1        14499030750                       # Energy for precharge background per rank (pJ)
system.mem_ctrls1.totalEnergy::0          44415333765                       # Total energy per rank (pJ)
system.mem_ctrls1.totalEnergy::1          44264771160                       # Total energy per rank (pJ)
system.mem_ctrls1.averagePower::0          742.941451                       # Core power per rank (mW)
system.mem_ctrls1.averagePower::1          740.422969                       # Core power per rank (mW)
system.mem_ctrls2.bytes_read::ruby.dir_cntrl2     13851712                       # Number of bytes read from this memory
system.mem_ctrls2.bytes_read::total          13851712                       # Number of bytes read from this memory
system.mem_ctrls2.bytes_written::ruby.dir_cntrl2      3841920                       # Number of bytes written to this memory
system.mem_ctrls2.bytes_written::total        3841920                       # Number of bytes written to this memory
system.mem_ctrls2.num_reads::ruby.dir_cntrl2       216433                       # Number of read requests responded to by this memory
system.mem_ctrls2.num_reads::total             216433                       # Number of read requests responded to by this memory
system.mem_ctrls2.num_writes::ruby.dir_cntrl2        60030                       # Number of write requests responded to by this memory
system.mem_ctrls2.num_writes::total             60030                       # Number of write requests responded to by this memory
system.mem_ctrls2.bw_read::ruby.dir_cntrl2    231683705                       # Total read bandwidth from this memory (bytes/s)
system.mem_ctrls2.bw_read::total            231683705                       # Total read bandwidth from this memory (bytes/s)
system.mem_ctrls2.bw_write::ruby.dir_cntrl2     64259946                       # Write bandwidth from this memory (bytes/s)
system.mem_ctrls2.bw_write::total            64259946                       # Write bandwidth from this memory (bytes/s)
system.mem_ctrls2.bw_total::ruby.dir_cntrl2    295943650                       # Total bandwidth to/from this memory (bytes/s)
system.mem_ctrls2.bw_total::total           295943650                       # Total bandwidth to/from this memory (bytes/s)
system.mem_ctrls2.readReqs                     216433                       # Number of read requests accepted
system.mem_ctrls2.writeReqs                     60030                       # Number of write requests accepted
system.mem_ctrls2.readBursts                   216433                       # Number of DRAM read bursts, including those serviced by the write queue
system.mem_ctrls2.writeBursts                   60030                       # Number of DRAM write bursts, including those merged in the write queue
system.mem_ctrls2.bytesReadDRAM              13850944                       # Total number of bytes read from DRAM
system.mem_ctrls2.bytesReadWrQ                    768                       # Total number of bytes read from write queue
system.mem_ctrls2.bytesWritten                3841664                       # Total number of bytes written to DRAM
system.mem_ctrls2.bytesReadSys               13851712                       # Total read bytes from the system interface side
system.mem_ctrls2.bytesWrittenSys             3841920                       # Total written bytes from the system interface side
system.mem_ctrls2.servicedByWrQ                    12                       # Number of DRAM read bursts serviced by the write queue
system.mem_ctrls2.mergedWrBursts                    0                       # Number of DRAM write bursts merged with an existing one
system.mem_ctrls2.neitherReadNorWriteReqs            0                       # Number of requests that are neither read nor write
system.mem_ctrls2.perBankRdBursts::0            13292                       # Per bank write bursts
system.mem_ctrls2.perBankRdBursts::1            13833                       # Per bank write bursts
system.mem_ctrls2.perBankRdBursts::2            13508                       # Per bank write bursts
system.mem_ctrls2.perBankRdBursts::3            13918                       # Per bank write bursts
system.mem_ctrls2.perBankRdBursts::4            13545                       # Per bank write bursts
system.mem_ctrls2.perBankRdBursts::5            14108                       # Per bank write bursts
system.mem_ctrls2.perBankRdBursts::6            13493                       # Per bank write bursts
system.mem_ctrls2.perBankRdBursts::7            13499                       # Per bank write bursts
system.mem_ctrls2.perBankRdBursts::8            13395                       # Per bank write bursts
system.mem_ctrls2.perBankRdBursts::9            13711                       # Per bank write bursts
system.mem_ctrls2.perBankRdBursts::10           13425                       # Per bank write bursts
system.mem_ctrls2.perBankRdBursts::11           13701                       # Per bank write bursts
system.mem_ctrls2.perBankRdBursts::12           13205                       # Per bank write bursts
system.mem_ctrls2.perBankRdBursts::13           13068                       # Per bank write bursts
system.mem_ctrls2.perBankRdBursts::14           13299                       # Per bank write bursts
system.mem_ctrls2.perBankRdBursts::15           13421                       # Per bank write bursts
system.mem_ctrls2.perBankWrBursts::0             3679                       # Per bank write bursts
system.mem_ctrls2.perBankWrBursts::1             3777                       # Per bank write bursts
system.mem_ctrls2.perBankWrBursts::2             3762                       # Per bank write bursts
system.mem_ctrls2.perBankWrBursts::3             3992                       # Per bank write bursts
system.mem_ctrls2.perBankWrBursts::4             3770                       # Per bank write bursts
system.mem_ctrls2.perBankWrBursts::5             3914                       # Per bank write bursts
system.mem_ctrls2.perBankWrBursts::6             3812                       # Per bank write bursts
system.mem_ctrls2.perBankWrBursts::7             3786                       # Per bank write bursts
system.mem_ctrls2.perBankWrBursts::8             3665                       # Per bank write bursts
system.mem_ctrls2.perBankWrBursts::9             3906                       # Per bank write bursts
system.mem_ctrls2.perBankWrBursts::10            3673                       # Per bank write bursts
system.mem_ctrls2.perBankWrBursts::11            3608                       # Per bank write bursts
system.mem_ctrls2.perBankWrBursts::12            3575                       # Per bank write bursts
system.mem_ctrls2.perBankWrBursts::13            3589                       # Per bank write bursts
system.mem_ctrls2.perBankWrBursts::14            3799                       # Per bank write bursts
system.mem_ctrls2.perBankWrBursts::15            3719                       # Per bank write bursts
system.mem_ctrls2.numRdRetry                      490                       # Number of times read queue was full causing retry
system.mem_ctrls2.numWrRetry                      234                       # Number of times write queue was full causing retry
system.mem_ctrls2.totGap                  59786457500                       # Total gap between requests
system.mem_ctrls2.readPktSize::0                    0                       # Read request sizes (log2)
system.mem_ctrls2.readPktSize::1                    0                       # Read request sizes (log2)
system.mem_ctrls2.readPktSize::2                    0                       # Read request sizes (log2)
system.mem_ctrls2.readPktSize::3                    0                       # Read request sizes (log2)
system.mem_ctrls2.readPktSize::4                    0                       # Read request sizes (log2)
system.mem_ctrls2.readPktSize::5                    0                       # Read request sizes (log2)
system.mem_ctrls2.readPktSize::6               216433                       # Read request sizes (log2)
system.mem_ctrls2.writePktSize::0                   0                       # Write request sizes (log2)
system.mem_ctrls2.writePktSize::1                   0                       # Write request sizes (log2)
system.mem_ctrls2.writePktSize::2                   0                       # Write request sizes (log2)
system.mem_ctrls2.writePktSize::3                   0                       # Write request sizes (log2)
system.mem_ctrls2.writePktSize::4                   0                       # Write request sizes (log2)
system.mem_ctrls2.writePktSize::5                   0                       # Write request sizes (log2)
system.mem_ctrls2.writePktSize::6               60030                       # Write request sizes (log2)
system.mem_ctrls2.rdQLenPdf::0                 158529                       # What read queue length does an incoming req see
system.mem_ctrls2.rdQLenPdf::1                  42603                       # What read queue length does an incoming req see
system.mem_ctrls2.rdQLenPdf::2                  10902                       # What read queue length does an incoming req see
system.mem_ctrls2.rdQLenPdf::3                   2426                       # What read queue length does an incoming req see
system.mem_ctrls2.rdQLenPdf::4                    498                       # What read queue length does an incoming req see
system.mem_ctrls2.rdQLenPdf::5                    140                       # What read queue length does an incoming req see
system.mem_ctrls2.rdQLenPdf::6                     56                       # What read queue length does an incoming req see
system.mem_ctrls2.rdQLenPdf::7                     45                       # What read queue length does an incoming req see
system.mem_ctrls2.rdQLenPdf::8                     52                       # What read queue length does an incoming req see
system.mem_ctrls2.rdQLenPdf::9                     73                       # What read queue length does an incoming req see
system.mem_ctrls2.rdQLenPdf::10                    60                       # What read queue length does an incoming req see
system.mem_ctrls2.rdQLenPdf::11                    46                       # What read queue length does an incoming req see
system.mem_ctrls2.rdQLenPdf::12                    56                       # What read queue length does an incoming req see
system.mem_ctrls2.rdQLenPdf::13                    54                       # What read queue length does an incoming req see
system.mem_ctrls2.rdQLenPdf::14                    50                       # What read queue length does an incoming req see
system.mem_ctrls2.rdQLenPdf::15                    39                       # What read queue length does an incoming req see
system.mem_ctrls2.rdQLenPdf::16                    39                       # What read queue length does an incoming req see
system.mem_ctrls2.rdQLenPdf::17                    29                       # What read queue length does an incoming req see
system.mem_ctrls2.rdQLenPdf::18                    30                       # What read queue length does an incoming req see
system.mem_ctrls2.rdQLenPdf::19                    25                       # What read queue length does an incoming req see
system.mem_ctrls2.rdQLenPdf::20                    24                       # What read queue length does an incoming req see
system.mem_ctrls2.rdQLenPdf::21                    23                       # What read queue length does an incoming req see
system.mem_ctrls2.rdQLenPdf::22                    17                       # What read queue length does an incoming req see
system.mem_ctrls2.rdQLenPdf::23                    11                       # What read queue length does an incoming req see
system.mem_ctrls2.rdQLenPdf::24                     8                       # What read queue length does an incoming req see
system.mem_ctrls2.rdQLenPdf::25                    14                       # What read queue length does an incoming req see
system.mem_ctrls2.rdQLenPdf::26                    11                       # What read queue length does an incoming req see
system.mem_ctrls2.rdQLenPdf::27                     8                       # What read queue length does an incoming req see
system.mem_ctrls2.rdQLenPdf::28                     7                       # What read queue length does an incoming req see
system.mem_ctrls2.rdQLenPdf::29                     8                       # What read queue length does an incoming req see
system.mem_ctrls2.rdQLenPdf::30                    14                       # What read queue length does an incoming req see
system.mem_ctrls2.rdQLenPdf::31                   524                       # What read queue length does an incoming req see
system.mem_ctrls2.wrQLenPdf::0                  11723                       # What write queue length does an incoming req see
system.mem_ctrls2.wrQLenPdf::1                  11925                       # What write queue length does an incoming req see
system.mem_ctrls2.wrQLenPdf::2                  11863                       # What write queue length does an incoming req see
system.mem_ctrls2.wrQLenPdf::3                  11873                       # What write queue length does an incoming req see
system.mem_ctrls2.wrQLenPdf::4                  11835                       # What write queue length does an incoming req see
system.mem_ctrls2.wrQLenPdf::5                    211                       # What write queue length does an incoming req see
system.mem_ctrls2.wrQLenPdf::6                    168                       # What write queue length does an incoming req see
system.mem_ctrls2.wrQLenPdf::7                    432                       # What write queue length does an incoming req see
system.mem_ctrls2.bytesPerActivate::samples        81451                       # Bytes accessed per row activation
system.mem_ctrls2.bytesPerActivate::mean   217.208383                       # Bytes accessed per row activation
system.mem_ctrls2.bytesPerActivate::gmean   139.019411                       # Bytes accessed per row activation
system.mem_ctrls2.bytesPerActivate::stdev   244.743204                       # Bytes accessed per row activation
system.mem_ctrls2.bytesPerActivate::0-127        38774     47.60%     47.60% # Bytes accessed per row activation
system.mem_ctrls2.bytesPerActivate::128-255        16555     20.33%     67.93% # Bytes accessed per row activation
system.mem_ctrls2.bytesPerActivate::256-383        14627     17.96%     85.89% # Bytes accessed per row activation
system.mem_ctrls2.bytesPerActivate::384-511         2642      3.24%     89.13% # Bytes accessed per row activation
system.mem_ctrls2.bytesPerActivate::512-639         1848      2.27%     91.40% # Bytes accessed per row activation
system.mem_ctrls2.bytesPerActivate::640-767         1357      1.67%     93.07% # Bytes accessed per row activation
system.mem_ctrls2.bytesPerActivate::768-895         1084      1.33%     94.40% # Bytes accessed per row activation
system.mem_ctrls2.bytesPerActivate::896-1023          944      1.16%     95.56% # Bytes accessed per row activation
system.mem_ctrls2.bytesPerActivate::1024-1151         3620      4.44%    100.00% # Bytes accessed per row activation
system.mem_ctrls2.bytesPerActivate::total        81451                       # Bytes accessed per row activation
system.mem_ctrls2.rdPerTurnAround::samples        11754                       # Reads before turning the bus around for writes
system.mem_ctrls2.rdPerTurnAround::mean     18.248341                       # Reads before turning the bus around for writes
system.mem_ctrls2.rdPerTurnAround::stdev    77.030566                       # Reads before turning the bus around for writes
system.mem_ctrls2.rdPerTurnAround::0-127        11420     97.16%     97.16% # Reads before turning the bus around for writes
system.mem_ctrls2.rdPerTurnAround::128-255          156      1.33%     98.49% # Reads before turning the bus around for writes
system.mem_ctrls2.rdPerTurnAround::256-383           70      0.60%     99.08% # Reads before turning the bus around for writes
system.mem_ctrls2.rdPerTurnAround::384-511           48      0.41%     99.49% # Reads before turning the bus around for writes
system.mem_ctrls2.rdPerTurnAround::512-639           34      0.29%     99.78% # Reads before turning the bus around for writes
system.mem_ctrls2.rdPerTurnAround::640-767           13      0.11%     99.89% # Reads before turning the bus around for writes
system.mem_ctrls2.rdPerTurnAround::768-895            2      0.02%     99.91% # Reads before turning the bus around for writes
system.mem_ctrls2.rdPerTurnAround::896-1023            2      0.02%     99.92% # Reads before turning the bus around for writes
system.mem_ctrls2.rdPerTurnAround::1024-1151            1      0.01%     99.93% # Reads before turning the bus around for writes
system.mem_ctrls2.rdPerTurnAround::1152-1279            1      0.01%     99.94% # Reads before turning the bus around for writes
system.mem_ctrls2.rdPerTurnAround::1280-1407            2      0.02%     99.96% # Reads before turning the bus around for writes
system.mem_ctrls2.rdPerTurnAround::1536-1663            1      0.01%     99.97% # Reads before turning the bus around for writes
system.mem_ctrls2.rdPerTurnAround::1664-1791            1      0.01%     99.97% # Reads before turning the bus around for writes
system.mem_ctrls2.rdPerTurnAround::1792-1919            1      0.01%     99.98% # Reads before turning the bus around for writes
system.mem_ctrls2.rdPerTurnAround::2048-2175            1      0.01%     99.99% # Reads before turning the bus around for writes
system.mem_ctrls2.rdPerTurnAround::2816-2943            1      0.01%    100.00% # Reads before turning the bus around for writes
system.mem_ctrls2.rdPerTurnAround::total        11754                       # Reads before turning the bus around for writes
system.mem_ctrls2.wrPerTurnAround::samples        11754                       # Writes before turning the bus around for reads
system.mem_ctrls2.wrPerTurnAround::mean      5.106857                       # Writes before turning the bus around for reads
system.mem_ctrls2.wrPerTurnAround::gmean     5.072801                       # Writes before turning the bus around for reads
system.mem_ctrls2.wrPerTurnAround::stdev     0.841865                       # Writes before turning the bus around for reads
system.mem_ctrls2.wrPerTurnAround::4-7          11641     99.04%     99.04% # Writes before turning the bus around for reads
system.mem_ctrls2.wrPerTurnAround::8-11            44      0.37%     99.41% # Writes before turning the bus around for reads
system.mem_ctrls2.wrPerTurnAround::12-15           23      0.20%     99.61% # Writes before turning the bus around for reads
system.mem_ctrls2.wrPerTurnAround::16-19           46      0.39%    100.00% # Writes before turning the bus around for reads
system.mem_ctrls2.wrPerTurnAround::total        11754                       # Writes before turning the bus around for reads
system.mem_ctrls2.totQLat                  2871932125                       # Total ticks spent queuing
system.mem_ctrls2.totMemAccLat             6929825875                       # Total ticks spent from burst creation until serviced by the DRAM
system.mem_ctrls2.totBusLat                1082105000                       # Total ticks spent in databus transfers
system.mem_ctrls2.avgQLat                    13270.12                       # Average queueing delay per DRAM burst
system.mem_ctrls2.avgBusLat                   5000.00                       # Average bus latency per DRAM burst
system.mem_ctrls2.avgMemAccLat               32020.12                       # Average memory access latency per DRAM burst
system.mem_ctrls2.avgRdBW                      231.67                       # Average DRAM read bandwidth in MiByte/s
system.mem_ctrls2.avgWrBW                       64.26                       # Average achieved write bandwidth in MiByte/s
system.mem_ctrls2.avgRdBWSys                   231.68                       # Average system read bandwidth in MiByte/s
system.mem_ctrls2.avgWrBWSys                    64.26                       # Average system write bandwidth in MiByte/s
system.mem_ctrls2.peakBW                     12800.00                       # Theoretical peak bandwidth in MiByte/s
system.mem_ctrls2.busUtil                        2.31                       # Data bus utilization in percentage
system.mem_ctrls2.busUtilRead                    1.81                       # Data bus utilization in percentage for reads
system.mem_ctrls2.busUtilWrite                   0.50                       # Data bus utilization in percentage for writes
system.mem_ctrls2.avgRdQLen                      1.10                       # Average read queue length when enqueuing
system.mem_ctrls2.avgWrQLen                      2.99                       # Average write queue length when enqueuing
system.mem_ctrls2.readRowHits                  156158                       # Number of row buffer hits during reads
system.mem_ctrls2.writeRowHits                  38831                       # Number of row buffer hits during writes
system.mem_ctrls2.readRowHitRate                72.15                       # Row buffer hit rate for reads
system.mem_ctrls2.writeRowHitRate               64.69                       # Row buffer hit rate for writes
system.mem_ctrls2.avgGap                    216254.82                       # Average gap between requests
system.mem_ctrls2.pageHitRate                   70.53                       # Row buffer hit rate, read and write combined
system.mem_ctrls2.memoryStateTime::IDLE   11122438500                       # Time in different power states
system.mem_ctrls2.memoryStateTime::REF     1996280000                       # Time in different power states
system.mem_ctrls2.memoryStateTime::PRE_PDN            0                       # Time in different power states
system.mem_ctrls2.memoryStateTime::ACT    46665510500                       # Time in different power states
system.mem_ctrls2.memoryStateTime::ACT_PDN            0                       # Time in different power states
system.mem_ctrls2.actEnergy::0              311192280                       # Energy for activate commands per rank (pJ)
system.mem_ctrls2.actEnergy::1              304569720                       # Energy for activate commands per rank (pJ)
system.mem_ctrls2.preEnergy::0              169797375                       # Energy for precharge commands per rank (pJ)
system.mem_ctrls2.preEnergy::1              166183875                       # Energy for precharge commands per rank (pJ)
system.mem_ctrls2.readEnergy::0             851666400                       # Energy for read commands per rank (pJ)
system.mem_ctrls2.readEnergy::1             836316000                       # Energy for read commands per rank (pJ)
system.mem_ctrls2.writeEnergy::0            197588160                       # Energy for write commands per rank (pJ)
system.mem_ctrls2.writeEnergy::1            191380320                       # Energy for write commands per rank (pJ)
system.mem_ctrls2.refreshEnergy::0         3904723680                       # Energy for refresh commands per rank (pJ)
system.mem_ctrls2.refreshEnergy::1         3904723680                       # Energy for refresh commands per rank (pJ)
system.mem_ctrls2.actBackEnergy::0        25316166960                       # Energy for active background per rank (pJ)
system.mem_ctrls2.actBackEnergy::1        24512123250                       # Energy for active background per rank (pJ)
system.mem_ctrls2.preBackEnergy::0        13662688500                       # Energy for precharge background per rank (pJ)
system.mem_ctrls2.preBackEnergy::1        14367990000                       # Energy for precharge background per rank (pJ)
system.mem_ctrls2.totalEnergy::0          44413823355                       # Total energy per rank (pJ)
system.mem_ctrls2.totalEnergy::1          44283286845                       # Total energy per rank (pJ)
system.mem_ctrls2.averagePower::0          742.916186                       # Core power per rank (mW)
system.mem_ctrls2.averagePower::1          740.732684                       # Core power per rank (mW)
system.mem_ctrls3.bytes_read::ruby.dir_cntrl3     13837056                       # Number of bytes read from this memory
system.mem_ctrls3.bytes_read::total          13837056                       # Number of bytes read from this memory
system.mem_ctrls3.bytes_written::ruby.dir_cntrl3      3838464                       # Number of bytes written to this memory
system.mem_ctrls3.bytes_written::total        3838464                       # Number of bytes written to this memory
system.mem_ctrls3.num_reads::ruby.dir_cntrl3       216204                       # Number of read requests responded to by this memory
system.mem_ctrls3.num_reads::total             216204                       # Number of read requests responded to by this memory
system.mem_ctrls3.num_writes::ruby.dir_cntrl3        59976                       # Number of write requests responded to by this memory
system.mem_ctrls3.num_writes::total             59976                       # Number of write requests responded to by this memory
system.mem_ctrls3.bw_read::ruby.dir_cntrl3    231438569                       # Total read bandwidth from this memory (bytes/s)
system.mem_ctrls3.bw_read::total            231438569                       # Total read bandwidth from this memory (bytes/s)
system.mem_ctrls3.bw_write::ruby.dir_cntrl3     64202141                       # Write bandwidth from this memory (bytes/s)
system.mem_ctrls3.bw_write::total            64202141                       # Write bandwidth from this memory (bytes/s)
system.mem_ctrls3.bw_total::ruby.dir_cntrl3    295640709                       # Total bandwidth to/from this memory (bytes/s)
system.mem_ctrls3.bw_total::total           295640709                       # Total bandwidth to/from this memory (bytes/s)
system.mem_ctrls3.readReqs                     216205                       # Number of read requests accepted
system.mem_ctrls3.writeReqs                     59976                       # Number of write requests accepted
system.mem_ctrls3.readBursts                   216205                       # Number of DRAM read bursts, including those serviced by the write queue
system.mem_ctrls3.writeBursts                   59976                       # Number of DRAM write bursts, including those merged in the write queue
system.mem_ctrls3.bytesReadDRAM              13836416                       # Total number of bytes read from DRAM
system.mem_ctrls3.bytesReadWrQ                    704                       # Total number of bytes read from write queue
system.mem_ctrls3.bytesWritten                3838208                       # Total number of bytes written to DRAM
system.mem_ctrls3.bytesReadSys               13837120                       # Total read bytes from the system interface side
system.mem_ctrls3.bytesWrittenSys             3838464                       # Total written bytes from the system interface side
system.mem_ctrls3.servicedByWrQ                    11                       # Number of DRAM read bursts serviced by the write queue
system.mem_ctrls3.mergedWrBursts                    0                       # Number of DRAM write bursts merged with an existing one
system.mem_ctrls3.neitherReadNorWriteReqs            0                       # Number of requests that are neither read nor write
system.mem_ctrls3.perBankRdBursts::0            13270                       # Per bank write bursts
system.mem_ctrls3.perBankRdBursts::1            13822                       # Per bank write bursts
system.mem_ctrls3.perBankRdBursts::2            13450                       # Per bank write bursts
system.mem_ctrls3.perBankRdBursts::3            13898                       # Per bank write bursts
system.mem_ctrls3.perBankRdBursts::4            13490                       # Per bank write bursts
system.mem_ctrls3.perBankRdBursts::5            14087                       # Per bank write bursts
system.mem_ctrls3.perBankRdBursts::6            13511                       # Per bank write bursts
system.mem_ctrls3.perBankRdBursts::7            13491                       # Per bank write bursts
system.mem_ctrls3.perBankRdBursts::8            13398                       # Per bank write bursts
system.mem_ctrls3.perBankRdBursts::9            13703                       # Per bank write bursts
system.mem_ctrls3.perBankRdBursts::10           13441                       # Per bank write bursts
system.mem_ctrls3.perBankRdBursts::11           13659                       # Per bank write bursts
system.mem_ctrls3.perBankRdBursts::12           13200                       # Per bank write bursts
system.mem_ctrls3.perBankRdBursts::13           13061                       # Per bank write bursts
system.mem_ctrls3.perBankRdBursts::14           13312                       # Per bank write bursts
system.mem_ctrls3.perBankRdBursts::15           13401                       # Per bank write bursts
system.mem_ctrls3.perBankWrBursts::0             3684                       # Per bank write bursts
system.mem_ctrls3.perBankWrBursts::1             3769                       # Per bank write bursts
system.mem_ctrls3.perBankWrBursts::2             3752                       # Per bank write bursts
system.mem_ctrls3.perBankWrBursts::3             3975                       # Per bank write bursts
system.mem_ctrls3.perBankWrBursts::4             3768                       # Per bank write bursts
system.mem_ctrls3.perBankWrBursts::5             3909                       # Per bank write bursts
system.mem_ctrls3.perBankWrBursts::6             3808                       # Per bank write bursts
system.mem_ctrls3.perBankWrBursts::7             3773                       # Per bank write bursts
system.mem_ctrls3.perBankWrBursts::8             3662                       # Per bank write bursts
system.mem_ctrls3.perBankWrBursts::9             3908                       # Per bank write bursts
system.mem_ctrls3.perBankWrBursts::10            3671                       # Per bank write bursts
system.mem_ctrls3.perBankWrBursts::11            3622                       # Per bank write bursts
system.mem_ctrls3.perBankWrBursts::12            3573                       # Per bank write bursts
system.mem_ctrls3.perBankWrBursts::13            3595                       # Per bank write bursts
system.mem_ctrls3.perBankWrBursts::14            3795                       # Per bank write bursts
system.mem_ctrls3.perBankWrBursts::15            3708                       # Per bank write bursts
system.mem_ctrls3.numRdRetry                      458                       # Number of times read queue was full causing retry
system.mem_ctrls3.numWrRetry                      270                       # Number of times write queue was full causing retry
system.mem_ctrls3.totGap                  59786420000                       # Total gap between requests
system.mem_ctrls3.readPktSize::0                    0                       # Read request sizes (log2)
system.mem_ctrls3.readPktSize::1                    0                       # Read request sizes (log2)
system.mem_ctrls3.readPktSize::2                    0                       # Read request sizes (log2)
system.mem_ctrls3.readPktSize::3                    0                       # Read request sizes (log2)
system.mem_ctrls3.readPktSize::4                    0                       # Read request sizes (log2)
system.mem_ctrls3.readPktSize::5                    0                       # Read request sizes (log2)
system.mem_ctrls3.readPktSize::6               216205                       # Read request sizes (log2)
[...]
system.ruby.L2Cache_Controller.IM.Mem_Data::total       190204                      
system.ruby.L2Cache_Controller.SS_MB.Exclusive_Unblock |         212     81.23%     81.23% |           6      2.30%     83.52% |           3      1.15%     84.67% |           6      2.30%     86.97% |           0      0.00%     86.97% |           1      0.38%     87.36% |           1      0.38%     87.74% |           0      0.00%     87.74% |           0      0.00%     87.74% |           1      0.38%     88.12% |           0      0.00%     88.12% |           0      0.00%     88.12% |           5      1.92%     90.04% |           0      0.00%     90.04% |           2      0.77%     90.80% |           1      0.38%     91.19% |           0      0.00%     91.19% |           0      0.00%     91.19% |          10      3.83%     95.02% |           2      0.77%     95.79% |           0      0.00%     95.79% |           0      0.00%     95.79% |           0      0.00%     95.79% |           0      0.00%     95.79% |           1      0.38%     96.17% |           0      0.00%     96.17% |           2      0.77%     96.93% |           1      0.38%     97.32% |           4      1.53%     98.85% |           1      0.38%     99.23% |           1      0.38%     99.62% |           1      0.38%    100.00%
system.ruby.L2Cache_Controller.SS_MB.Exclusive_Unblock::total          261                      
system.ruby.L2Cache_Controller.MT_MB.L1_GETS |           1    100.00%    100.00% |           0      0.00%    100.00% |           0      0.00%    100.00% |           0      0.00%    100.00% |           0      0.00%    100.00% |           0      0.00%    100.00% |           0      0.00%    100.00% |           0      0.00%    100.00% |           0      0.00%    100.00% |           0      0.00%    100.00% |           0      0.00%    100.00% |           0      0.00%    100.00% |           0      0.00%    100.00% |           0      0.00%    100.00% |           0      0.00%    100.00% |           0      0.00%    100.00% |           0      0.00%    100.00% |           0      0.00%    100.00% |           0      0.00%    100.00% |           0      0.00%    100.00% |           0      0.00%    100.00% |           0      0.00%    100.00% |           0      0.00%    100.00% |           0      0.00%    100.00% |           0      0.00%    100.00% |           0      0.00%    100.00% |           0      0.00%    100.00% |           0      0.00%    100.00% |           0      0.00%    100.00% |           0      0.00%    100.00% |           0      0.00%    100.00% |           0      0.00%    100.00%
system.ruby.L2Cache_Controller.MT_MB.L1_GETS::total            1                      
system.ruby.L2Cache_Controller.MT_MB.Exclusive_Unblock |       77643      7.09%      7.09% |       33388      3.05%     10.14% |       32686      2.99%     13.13% |       32854      3.00%     16.13% |       33110      3.02%     19.15% |       32033      2.93%     22.07% |       31957      2.92%     24.99% |       31676      2.89%     27.89% |       33952      3.10%     30.99% |       32355      2.95%     33.94% |       34303      3.13%     37.07% |       33125      3.03%     40.10% |       32695      2.99%     43.09% |       31745      2.90%     45.98% |       31778      2.90%     48.89% |       31669      2.89%     51.78% |       34275      3.13%     54.91% |       32115      2.93%     57.84% |       32966      3.01%     60.85% |       32543      2.97%     63.82% |       33034      3.02%     66.84% |       32476      2.97%     69.81% |       33015      3.02%     72.82% |       32009      2.92%     75.75% |       33647      3.07%     78.82% |       32343      2.95%     81.77% |       32844      3.00%     84.77% |       31819      2.91%     87.68% |       33166      3.03%     90.71% |       31907      2.91%     93.62% |       34283      3.13%     96.75% |       35573      3.25%    100.00%
system.ruby.L2Cache_Controller.MT_MB.Exclusive_Unblock::total      1094984                      
system.ruby.L2Cache_Controller.MT_IIB.L1_GETS |           0      0.00%      0.00% |           4     21.05%     21.05% |           1      5.26%     26.32% |           0      0.00%     26.32% |           0      0.00%     26.32% |           0      0.00%     26.32% |           0      0.00%     26.32% |           0      0.00%     26.32% |           0      0.00%     26.32% |           0      0.00%     26.32% |           0      0.00%     26.32% |           0      0.00%     26.32% |           0      0.00%     26.32% |           0      0.00%     26.32% |           0      0.00%     26.32% |           0      0.00%     26.32% |           0      0.00%     26.32% |           8     42.11%     68.42% |           6     31.58%    100.00% |           0      0.00%    100.00% |           0      0.00%    100.00% |           0      0.00%    100.00% |           0      0.00%    100.00% |           0      0.00%    100.00% |           0      0.00%    100.00% |           0      0.00%    100.00% |           0      0.00%    100.00% |           0      0.00%    100.00% |           0      0.00%    100.00% |           0      0.00%    100.00% |           0      0.00%    100.00% |           0      0.00%    100.00%
system.ruby.L2Cache_Controller.MT_IIB.L1_GETS::total           19                      
system.ruby.L2Cache_Controller.MT_IIB.WB_Data |         178      7.68%      7.68% |          69      2.98%     10.66% |          69      2.98%     13.64% |          62      2.68%     16.31% |          69      2.98%     19.29% |          69      2.98%     22.27% |          69      2.98%     25.25% |          69      2.98%     28.23% |          69      2.98%     31.20% |          69      2.98%     34.18% |          69      2.98%     37.16% |          69      2.98%     40.14% |          73      3.15%     43.29% |          69      2.98%     46.27% |          69      2.98%     49.24% |          69      2.98%     52.22% |          69      2.98%     55.20% |          69      2.98%     58.18% |          70      3.02%     61.20% |          69      2.98%     64.18% |          69      2.98%     67.16% |          69      2.98%     70.13% |          71      3.06%     73.20% |          69      2.98%     76.18% |          69      2.98%     79.15% |          69      2.98%     82.13% |          69      2.98%     85.11% |          69      2.98%     88.09% |          69      2.98%     91.07% |          69      2.98%     94.04% |          69      2.98%     97.02% |          69      2.98%    100.00%
system.ruby.L2Cache_Controller.MT_IIB.WB_Data::total         2317                      
system.ruby.L2Cache_Controller.MT_IIB.WB_Data_clean |         595     96.43%     96.43% |           4      0.65%     97.08% |           3      0.49%     97.57% |           3      0.49%     98.06% |           0      0.00%     98.06% |           0      0.00%     98.06% |           0      0.00%     98.06% |           0      0.00%     98.06% |           0      0.00%     98.06% |           0      0.00%     98.06% |           0      0.00%     98.06% |           0      0.00%     98.06% |           0      0.00%     98.06% |           0      0.00%     98.06% |           1      0.16%     98.22% |           0      0.00%     98.22% |           1      0.16%     98.38% |           4      0.65%     99.03% |           3      0.49%     99.51% |           3      0.49%    100.00% |           0      0.00%    100.00% |           0      0.00%    100.00% |           0      0.00%    100.00% |           0      0.00%    100.00% |           0      0.00%    100.00% |           0      0.00%    100.00% |           0      0.00%    100.00% |           0      0.00%    100.00% |           0      0.00%    100.00% |           0      0.00%    100.00% |           0      0.00%    100.00% |           0      0.00%    100.00%
system.ruby.L2Cache_Controller.MT_IIB.WB_Data_clean::total          617                      
system.ruby.L2Cache_Controller.MT_IIB.Unblock |           0      0.00%      0.00% |           2     14.29%     14.29% |           0      0.00%     14.29% |           7     50.00%     64.29% |           0      0.00%     64.29% |           0      0.00%     64.29% |           0      0.00%     64.29% |           0      0.00%     64.29% |           0      0.00%     64.29% |           0      0.00%     64.29% |           0      0.00%     64.29% |           0      0.00%     64.29% |           0      0.00%     64.29% |           0      0.00%     64.29% |           0      0.00%     64.29% |           0      0.00%     64.29% |           0      0.00%     64.29% |           0      0.00%     64.29% |           1      7.14%     71.43% |           1      7.14%     78.57% |           0      0.00%     78.57% |           0      0.00%     78.57% |           0      0.00%     78.57% |           0      0.00%     78.57% |           0      0.00%     78.57% |           1      7.14%     85.71% |           0      0.00%     85.71% |           0      0.00%     85.71% |           2     14.29%    100.00% |           0      0.00%    100.00% |           0      0.00%    100.00% |           0      0.00%    100.00%
system.ruby.L2Cache_Controller.MT_IIB.Unblock::total           14                      
system.ruby.L2Cache_Controller.MT_IB.WB_Data |           0      0.00%      0.00% |           2     15.38%     15.38% |           0      0.00%     15.38% |           7     53.85%     69.23% |           0      0.00%     69.23% |           0      0.00%     69.23% |           0      0.00%     69.23% |           0      0.00%     69.23% |           0      0.00%     69.23% |           0      0.00%     69.23% |           0      0.00%     69.23% |           0      0.00%     69.23% |           0      0.00%     69.23% |           0      0.00%     69.23% |           0      0.00%     69.23% |           0      0.00%     69.23% |           0      0.00%     69.23% |           0      0.00%     69.23% |           0      0.00%     69.23% |           1      7.69%     76.92% |           0      0.00%     76.92% |           0      0.00%     76.92% |           0      0.00%     76.92% |           0      0.00%     76.92% |           0      0.00%     76.92% |           1      7.69%     84.62% |           0      0.00%     84.62% |           0      0.00%     84.62% |           2     15.38%    100.00% |           0      0.00%    100.00% |           0      0.00%    100.00% |           0      0.00%    100.00%
system.ruby.L2Cache_Controller.MT_IB.WB_Data::total           13                      
system.ruby.L2Cache_Controller.MT_IB.WB_Data_clean |           0      0.00%      0.00% |           0      0.00%      0.00% |           0      0.00%      0.00% |           0      0.00%      0.00% |           0      0.00%      0.00% |           0      0.00%      0.00% |           0      0.00%      0.00% |           0      0.00%      0.00% |           0      0.00%      0.00% |           0      0.00%      0.00% |           0      0.00%      0.00% |           0      0.00%      0.00% |           0      0.00%      0.00% |           0      0.00%      0.00% |           0      0.00%      0.00% |           0      0.00%      0.00% |           0      0.00%      0.00% |           0      0.00%      0.00% |           1    100.00%    100.00% |           0      0.00%    100.00% |           0      0.00%    100.00% |           0      0.00%    100.00% |           0      0.00%    100.00% |           0      0.00%    100.00% |           0      0.00%    100.00% |           0      0.00%    100.00% |           0      0.00%    100.00% |           0      0.00%    100.00% |           0      0.00%    100.00% |           0      0.00%    100.00% |           0      0.00%    100.00% |           0      0.00%    100.00%
system.ruby.L2Cache_Controller.MT_IB.WB_Data_clean::total            1                      
system.ruby.L2Cache_Controller.MT_SB.L1_GETS |           0      0.00%      0.00% |           1     50.00%     50.00% |           0      0.00%     50.00% |           0      0.00%     50.00% |           0      0.00%     50.00% |           0      0.00%     50.00% |           0      0.00%     50.00% |           0      0.00%     50.00% |           0      0.00%     50.00% |           0      0.00%     50.00% |           0      0.00%     50.00% |           0      0.00%     50.00% |           0      0.00%     50.00% |           0      0.00%     50.00% |           0      0.00%     50.00% |           0      0.00%     50.00% |           0      0.00%     50.00% |           0      0.00%     50.00% |           1     50.00%    100.00% |           0      0.00%    100.00% |           0      0.00%    100.00% |           0      0.00%    100.00% |           0      0.00%    100.00% |           0      0.00%    100.00% |           0      0.00%    100.00% |           0      0.00%    100.00% |           0      0.00%    100.00% |           0      0.00%    100.00% |           0      0.00%    100.00% |           0      0.00%    100.00% |           0      0.00%    100.00% |           0      0.00%    100.00%
system.ruby.L2Cache_Controller.MT_SB.L1_GETS::total            2                      
system.ruby.L2Cache_Controller.MT_SB.Unblock |         773     26.35%     26.35% |          73      2.49%     28.83% |          72      2.45%     31.29% |          65      2.22%     33.50% |          69      2.35%     35.86% |          69      2.35%     38.21% |          69      2.35%     40.56% |          69      2.35%     42.91% |          69      2.35%     45.26% |          69      2.35%     47.61% |          69      2.35%     49.97% |          69      2.35%     52.32% |          73      2.49%     54.81% |          69      2.35%     57.16% |          70      2.39%     59.54% |          69      2.35%     61.90% |          70      2.39%     64.28% |          73      2.49%     66.77% |          73      2.49%     69.26% |          72      2.45%     71.71% |          69      2.35%     74.06% |          69      2.35%     76.41% |          71      2.42%     78.83% |          69      2.35%     81.19% |          69      2.35%     83.54% |          69      2.35%     85.89% |          69      2.35%     88.24% |          69      2.35%     90.59% |          69      2.35%     92.94% |          69      2.35%     95.30% |          69      2.35%     97.65% |          69      2.35%    100.00%
system.ruby.L2Cache_Controller.MT_SB.Unblock::total         2934                      
system.ruby.SimicsNetworkPortInterface_Controller.MessageSend |       76171      4.27%      4.27% |      891400     50.00%     54.27% |      107916      6.05%     60.33% |      102758      5.76%     66.09% |      101002      5.67%     71.75% |      102929      5.77%     77.53% |      101432      5.69%     83.22% |      103361      5.80%     89.02% |       97205      5.45%     94.47% |       98626      5.53%    100.00% |           0      0.00%    100.00% |           0      0.00%    100.00% |           0      0.00%    100.00% |           0      0.00%    100.00% |           0      0.00%    100.00% |           0      0.00%    100.00% |           0      0.00%    100.00% |           0      0.00%    100.00% |           0      0.00%    100.00% |           0      0.00%    100.00% |           0      0.00%    100.00% |           0      0.00%    100.00% |           0      0.00%    100.00% |           0      0.00%    100.00% |           0      0.00%    100.00% |           0      0.00%    100.00% |           0      0.00%    100.00% |           0      0.00%    100.00% |           0      0.00%    100.00% |           0      0.00%    100.00% |           0      0.00%    100.00% |           0      0.00%    100.00%
system.ruby.SimicsNetworkPortInterface_Controller.MessageSend::total      1782800                      
system.ruby.SimicsNetworkPortInterface_Controller.MessageRecv |       76171      4.27%      4.27% |      891400     50.00%     54.27% |      107916      6.05%     60.33% |      102758      5.76%     66.09% |      101002      5.67%     71.75% |      102929      5.77%     77.53% |      101432      5.69%     83.22% |      103361      5.80%     89.02% |       97205      5.45%     94.47% |       98626      5.53%    100.00% |           0      0.00%    100.00% |           0      0.00%    100.00% |           0      0.00%    100.00% |           0      0.00%    100.00% |           0      0.00%    100.00% |           0      0.00%    100.00% |           0      0.00%    100.00% |           0      0.00%    100.00% |           0      0.00%    100.00% |           0      0.00%    100.00% |           0      0.00%    100.00% |           0      0.00%    100.00% |           0      0.00%    100.00% |           0      0.00%    100.00% |           0      0.00%    100.00% |           0      0.00%    100.00% |           0      0.00%    100.00% |           0      0.00%    100.00% |           0      0.00%    100.00% |           0      0.00%    100.00% |           0      0.00%    100.00% |           0      0.00%    100.00%
system.ruby.SimicsNetworkPortInterface_Controller.MessageRecv::total      1782800                      
system.ruby.SimicsNetworkPortInterface_Controller.A.MessageSend |       76171      4.27%      4.27% |      891400     50.00%     54.27% |      107916      6.05%     60.33% |      102758      5.76%     66.09% |      101002      5.67%     71.75% |      102929      5.77%     77.53% |      101432      5.69%     83.22% |      103361      5.80%     89.02% |       97205      5.45%     94.47% |       98626      5.53%    100.00% |           0      0.00%    100.00% |           0      0.00%    100.00% |           0      0.00%    100.00% |           0      0.00%    100.00% |           0      0.00%    100.00% |           0      0.00%    100.00% |           0      0.00%    100.00% |           0      0.00%    100.00% |           0      0.00%    100.00% |           0      0.00%    100.00% |           0      0.00%    100.00% |           0      0.00%    100.00% |           0      0.00%    100.00% |           0      0.00%    100.00% |           0      0.00%    100.00% |           0      0.00%    100.00% |           0      0.00%    100.00% |           0      0.00%    100.00% |           0      0.00%    100.00% |           0      0.00%    100.00% |           0      0.00%    100.00% |           0      0.00%    100.00%
system.ruby.SimicsNetworkPortInterface_Controller.A.MessageSend::total      1782800                      
system.ruby.SimicsNetworkPortInterface_Controller.A.MessageRecv |       76171      4.27%      4.27% |      891400     50.00%     54.27% |      107916      6.05%     60.33% |      102758      5.76%     66.09% |      101002      5.67%     71.75% |      102929      5.77%     77.53% |      101432      5.69%     83.22% |      103361      5.80%     89.02% |       97205      5.45%     94.47% |       98626      5.53%    100.00% |           0      0.00%    100.00% |           0      0.00%    100.00% |           0      0.00%    100.00% |           0      0.00%    100.00% |           0      0.00%    100.00% |           0      0.00%    100.00% |           0      0.00%    100.00% |           0      0.00%    100.00% |           0      0.00%    100.00% |           0      0.00%    100.00% |           0      0.00%    100.00% |           0      0.00%    100.00% |           0      0.00%    100.00% |           0      0.00%    100.00% |           0      0.00%    100.00% |           0      0.00%    100.00% |           0      0.00%    100.00% |           0      0.00%    100.00% |           0      0.00%    100.00% |           0      0.00%    100.00% |           0      0.00%    100.00% |           0      0.00%    100.00%
system.ruby.SimicsNetworkPortInterface_Controller.A.MessageRecv::total      1782800                      
system.switch_cpus.kern.inst.arm                    0                       # number of arm instructions executed
system.switch_cpus.kern.inst.quiesce                0                       # number of quiesce instructions executed

---------- End Simulation Statistics   ----------
