
---------- Begin Simulation Statistics ----------
sim_seconds                                  0.034776                       # Number of seconds simulated
sim_ticks                                 34776118000                       # Number of ticks simulated
final_tick                               5210944196500                       # Number of ticks from beginning of simulation (restored from checkpoints and never reset)
sim_freq                                 1000000000000                       # Frequency of simulated ticks
host_inst_rate                                  26627                       # Simulator instruction rate (inst/s)
host_op_rate                                    49133                       # Simulator op (including micro ops) rate (op/s)
host_tick_rate                               45304260                       # Simulator tick rate (ticks/s)
host_mem_usage                                4638180                       # Number of bytes of host memory used
host_seconds                                   767.61                       # Real time elapsed on the host
sim_insts                                    20438986                       # Number of instructions simulated
sim_ops                                      37715159                       # Number of ops (including micro ops) simulated
system.voltage_domain.voltage                       1                       # Voltage in Volts
system.clk_domain.clock                           500                       # Clock period in ticks
system.mem_ctrls0.bytes_read::ruby.dir_cntrl0      4956800                       # Number of bytes read from this memory
system.mem_ctrls0.bytes_read::total           4956800                       # Number of bytes read from this memory
system.mem_ctrls0.bytes_written::ruby.dir_cntrl0      3960576                       # Number of bytes written to this memory
system.mem_ctrls0.bytes_written::total        3960576                       # Number of bytes written to this memory
system.mem_ctrls0.num_reads::ruby.dir_cntrl0        77450                       # Number of read requests responded to by this memory
system.mem_ctrls0.num_reads::total              77450                       # Number of read requests responded to by this memory
system.mem_ctrls0.num_writes::ruby.dir_cntrl0        61884                       # Number of write requests responded to by this memory
system.mem_ctrls0.num_writes::total             61884                       # Number of write requests responded to by this memory
system.mem_ctrls0.bw_read::ruby.dir_cntrl0    142534598                       # Total read bandwidth from this memory (bytes/s)
system.mem_ctrls0.bw_read::total            142534598                       # Total read bandwidth from this memory (bytes/s)
system.mem_ctrls0.bw_write::ruby.dir_cntrl0    113887812                       # Write bandwidth from this memory (bytes/s)
system.mem_ctrls0.bw_write::total           113887812                       # Write bandwidth from this memory (bytes/s)
system.mem_ctrls0.bw_total::ruby.dir_cntrl0    256422410                       # Total bandwidth to/from this memory (bytes/s)
system.mem_ctrls0.bw_total::total           256422410                       # Total bandwidth to/from this memory (bytes/s)
system.mem_ctrls0.readReqs                      77450                       # Number of read requests accepted
system.mem_ctrls0.writeReqs                     61884                       # Number of write requests accepted
system.mem_ctrls0.readBursts                    77450                       # Number of DRAM read bursts, including those serviced by the write queue
system.mem_ctrls0.writeBursts                   61884                       # Number of DRAM write bursts, including those merged in the write queue
system.mem_ctrls0.bytesReadDRAM               4955584                       # Total number of bytes read from DRAM
system.mem_ctrls0.bytesReadWrQ                   1216                       # Total number of bytes read from write queue
system.mem_ctrls0.bytesWritten                3960384                       # Total number of bytes written to DRAM
system.mem_ctrls0.bytesReadSys                4956800                       # Total read bytes from the system interface side
system.mem_ctrls0.bytesWrittenSys             3960576                       # Total written bytes from the system interface side
system.mem_ctrls0.servicedByWrQ                    19                       # Number of DRAM read bursts serviced by the write queue
system.mem_ctrls0.mergedWrBursts                    0                       # Number of DRAM write bursts merged with an existing one
system.mem_ctrls0.neitherReadNorWriteReqs            0                       # Number of requests that are neither read nor write
system.mem_ctrls0.perBankRdBursts::0             4390                       # Per bank write bursts
system.mem_ctrls0.perBankRdBursts::1             4821                       # Per bank write bursts
system.mem_ctrls0.perBankRdBursts::2             4525                       # Per bank write bursts
system.mem_ctrls0.perBankRdBursts::3             4952                       # Per bank write bursts
system.mem_ctrls0.perBankRdBursts::4             4839                       # Per bank write bursts
system.mem_ctrls0.perBankRdBursts::5             5340                       # Per bank write bursts
system.mem_ctrls0.perBankRdBursts::6             4952                       # Per bank write bursts
system.mem_ctrls0.perBankRdBursts::7             5213                       # Per bank write bursts
system.mem_ctrls0.perBankRdBursts::8             5016                       # Per bank write bursts
system.mem_ctrls0.perBankRdBursts::9             5197                       # Per bank write bursts
system.mem_ctrls0.perBankRdBursts::10            4603                       # Per bank write bursts
system.mem_ctrls0.perBankRdBursts::11            4784                       # Per bank write bursts
system.mem_ctrls0.perBankRdBursts::12            4571                       # Per bank write bursts
system.mem_ctrls0.perBankRdBursts::13            4621                       # Per bank write bursts
system.mem_ctrls0.perBankRdBursts::14            4793                       # Per bank write bursts
system.mem_ctrls0.perBankRdBursts::15            4814                       # Per bank write bursts
system.mem_ctrls0.perBankWrBursts::0             3628                       # Per bank write bursts
system.mem_ctrls0.perBankWrBursts::1             3577                       # Per bank write bursts
system.mem_ctrls0.perBankWrBursts::2             3629                       # Per bank write bursts
system.mem_ctrls0.perBankWrBursts::3             3772                       # Per bank write bursts
system.mem_ctrls0.perBankWrBursts::4             3869                       # Per bank write bursts
system.mem_ctrls0.perBankWrBursts::5             4190                       # Per bank write bursts
system.mem_ctrls0.perBankWrBursts::6             3915                       # Per bank write bursts
system.mem_ctrls0.perBankWrBursts::7             4184                       # Per bank write bursts
system.mem_ctrls0.perBankWrBursts::8             4026                       # Per bank write bursts
system.mem_ctrls0.perBankWrBursts::9             4108                       # Per bank write bursts
system.mem_ctrls0.perBankWrBursts::10            3684                       # Per bank write bursts
system.mem_ctrls0.perBankWrBursts::11            3642                       # Per bank write bursts
system.mem_ctrls0.perBankWrBursts::12            3776                       # Per bank write bursts
system.mem_ctrls0.perBankWrBursts::13            3907                       # Per bank write bursts
system.mem_ctrls0.perBankWrBursts::14            4052                       # Per bank write bursts
system.mem_ctrls0.perBankWrBursts::15            3922                       # Per bank write bursts
system.mem_ctrls0.numRdRetry                     2359                       # Number of times read queue was full causing retry
system.mem_ctrls0.numWrRetry                     3283                       # Number of times write queue was full causing retry
system.mem_ctrls0.totGap                  34775628500                       # Total gap between requests
system.mem_ctrls0.readPktSize::0                    0                       # Read request sizes (log2)
system.mem_ctrls0.readPktSize::1                    0                       # Read request sizes (log2)
system.mem_ctrls0.readPktSize::2                    0                       # Read request sizes (log2)
system.mem_ctrls0.readPktSize::3                    0                       # Read request sizes (log2)
system.mem_ctrls0.readPktSize::4                    0                       # Read request sizes (log2)
system.mem_ctrls0.readPktSize::5                    0                       # Read request sizes (log2)
system.mem_ctrls0.readPktSize::6                77450                       # Read request sizes (log2)
system.mem_ctrls0.writePktSize::0                   0                       # Write request sizes (log2)
system.mem_ctrls0.writePktSize::1                   0                       # Write request sizes (log2)
system.mem_ctrls0.writePktSize::2                   0                       # Write request sizes (log2)
system.mem_ctrls0.writePktSize::3                   0                       # Write request sizes (log2)
system.mem_ctrls0.writePktSize::4                   0                       # Write request sizes (log2)
system.mem_ctrls0.writePktSize::5                   0                       # Write request sizes (log2)
system.mem_ctrls0.writePktSize::6               61884                       # Write request sizes (log2)
system.mem_ctrls0.rdQLenPdf::0                  41515                       # What read queue length does an incoming req see
system.mem_ctrls0.rdQLenPdf::1                   7988                       # What read queue length does an incoming req see
system.mem_ctrls0.rdQLenPdf::2                   5704                       # What read queue length does an incoming req see
system.mem_ctrls0.rdQLenPdf::3                   4162                       # What read queue length does an incoming req see
system.mem_ctrls0.rdQLenPdf::4                   2957                       # What read queue length does an incoming req see
system.mem_ctrls0.rdQLenPdf::5                   2074                       # What read queue length does an incoming req see
system.mem_ctrls0.rdQLenPdf::6                   1461                       # What read queue length does an incoming req see
system.mem_ctrls0.rdQLenPdf::7                   1081                       # What read queue length does an incoming req see
system.mem_ctrls0.rdQLenPdf::8                    813                       # What read queue length does an incoming req see
system.mem_ctrls0.rdQLenPdf::9                    659                       # What read queue length does an incoming req see
system.mem_ctrls0.rdQLenPdf::10                   573                       # What read queue length does an incoming req see
system.mem_ctrls0.rdQLenPdf::11                   545                       # What read queue length does an incoming req see
system.mem_ctrls0.rdQLenPdf::12                   500                       # What read queue length does an incoming req see
system.mem_ctrls0.rdQLenPdf::13                   418                       # What read queue length does an incoming req see
system.mem_ctrls0.rdQLenPdf::14                   388                       # What read queue length does an incoming req see
system.mem_ctrls0.rdQLenPdf::15                   362                       # What read queue length does an incoming req see
system.mem_ctrls0.rdQLenPdf::16                   337                       # What read queue length does an incoming req see
system.mem_ctrls0.rdQLenPdf::17                   339                       # What read queue length does an incoming req see
system.mem_ctrls0.rdQLenPdf::18                   328                       # What read queue length does an incoming req see
system.mem_ctrls0.rdQLenPdf::19                   321                       # What read queue length does an incoming req see
system.mem_ctrls0.rdQLenPdf::20                   301                       # What read queue length does an incoming req see
system.mem_ctrls0.rdQLenPdf::21                   279                       # What read queue length does an incoming req see
system.mem_ctrls0.rdQLenPdf::22                   255                       # What read queue length does an incoming req see
system.mem_ctrls0.rdQLenPdf::23                   217                       # What read queue length does an incoming req see
system.mem_ctrls0.rdQLenPdf::24                   217                       # What read queue length does an incoming req see
system.mem_ctrls0.rdQLenPdf::25                   204                       # What read queue length does an incoming req see
system.mem_ctrls0.rdQLenPdf::26                   158                       # What read queue length does an incoming req see
system.mem_ctrls0.rdQLenPdf::27                   135                       # What read queue length does an incoming req see
system.mem_ctrls0.rdQLenPdf::28                   134                       # What read queue length does an incoming req see
system.mem_ctrls0.rdQLenPdf::29                   138                       # What read queue length does an incoming req see
system.mem_ctrls0.rdQLenPdf::30                   184                       # What read queue length does an incoming req see
system.mem_ctrls0.rdQLenPdf::31                  2684                       # What read queue length does an incoming req see
system.mem_ctrls0.wrQLenPdf::0                   9283                       # What write queue length does an incoming req see
system.mem_ctrls0.wrQLenPdf::1                  10786                       # What write queue length does an incoming req see
system.mem_ctrls0.wrQLenPdf::2                  11239                       # What write queue length does an incoming req see
system.mem_ctrls0.wrQLenPdf::3                  11152                       # What write queue length does an incoming req see
system.mem_ctrls0.wrQLenPdf::4                  10909                       # What write queue length does an incoming req see
system.mem_ctrls0.wrQLenPdf::5                   2087                       # What write queue length does an incoming req see
system.mem_ctrls0.wrQLenPdf::6                   1673                       # What write queue length does an incoming req see
system.mem_ctrls0.wrQLenPdf::7                   4755                       # What write queue length does an incoming req see
system.mem_ctrls0.bytesPerActivate::samples        62336                       # Bytes accessed per row activation
system.mem_ctrls0.bytesPerActivate::mean   143.015400                       # Bytes accessed per row activation
system.mem_ctrls0.bytesPerActivate::gmean   102.877342                       # Bytes accessed per row activation
system.mem_ctrls0.bytesPerActivate::stdev   160.972419                       # Bytes accessed per row activation
system.mem_ctrls0.bytesPerActivate::0-127        38874     62.36%     62.36% # Bytes accessed per row activation
system.mem_ctrls0.bytesPerActivate::128-255        12753     20.46%     82.82% # Bytes accessed per row activation
system.mem_ctrls0.bytesPerActivate::256-383         6399     10.27%     93.09% # Bytes accessed per row activation
system.mem_ctrls0.bytesPerActivate::384-511         1603      2.57%     95.66% # Bytes accessed per row activation
system.mem_ctrls0.bytesPerActivate::512-639          925      1.48%     97.14% # Bytes accessed per row activation
system.mem_ctrls0.bytesPerActivate::640-767          522      0.84%     97.98% # Bytes accessed per row activation
system.mem_ctrls0.bytesPerActivate::768-895          344      0.55%     98.53% # Bytes accessed per row activation
system.mem_ctrls0.bytesPerActivate::896-1023          299      0.48%     99.01% # Bytes accessed per row activation
system.mem_ctrls0.bytesPerActivate::1024-1151          617      0.99%    100.00% # Bytes accessed per row activation
system.mem_ctrls0.bytesPerActivate::total        62336                       # Bytes accessed per row activation
system.mem_ctrls0.rdPerTurnAround::samples         9742                       # Reads before turning the bus around for writes
system.mem_ctrls0.rdPerTurnAround::mean      7.947444                       # Reads before turning the bus around for writes
system.mem_ctrls0.rdPerTurnAround::stdev    41.048231                       # Reads before turning the bus around for writes
system.mem_ctrls0.rdPerTurnAround::0-127         9736     99.94%     99.94% # Reads before turning the bus around for writes
system.mem_ctrls0.rdPerTurnAround::128-255            5      0.05%     99.99% # Reads before turning the bus around for writes
system.mem_ctrls0.rdPerTurnAround::3968-4095            1      0.01%    100.00% # Reads before turning the bus around for writes
system.mem_ctrls0.rdPerTurnAround::total         9742                       # Reads before turning the bus around for writes
system.mem_ctrls0.wrPerTurnAround::samples         9742                       # Writes before turning the bus around for reads
system.mem_ctrls0.wrPerTurnAround::mean      6.351981                       # Writes before turning the bus around for reads
system.mem_ctrls0.wrPerTurnAround::gmean     5.941629                       # Writes before turning the bus around for reads
system.mem_ctrls0.wrPerTurnAround::stdev     2.891318                       # Writes before turning the bus around for reads
system.mem_ctrls0.wrPerTurnAround::4-7           8198     84.15%     84.15% # Writes before turning the bus around for reads
system.mem_ctrls0.wrPerTurnAround::8-11           742      7.62%     91.77% # Writes before turning the bus around for reads
system.mem_ctrls0.wrPerTurnAround::12-15          278      2.85%     94.62% # Writes before turning the bus around for reads
system.mem_ctrls0.wrPerTurnAround::16-19          524      5.38%    100.00% # Writes before turning the bus around for reads
system.mem_ctrls0.wrPerTurnAround::total         9742                       # Writes before turning the bus around for reads
system.mem_ctrls0.totQLat                  5772655899                       # Total ticks spent queuing
system.mem_ctrls0.totMemAccLat             7224487149                       # Total ticks spent from burst creation until serviced by the DRAM
system.mem_ctrls0.totBusLat                 387155000                       # Total ticks spent in databus transfers
system.mem_ctrls0.avgQLat                    74552.26                       # Average queueing delay per DRAM burst
system.mem_ctrls0.avgBusLat                   5000.00                       # Average bus latency per DRAM burst
system.mem_ctrls0.avgMemAccLat               93302.26                       # Average memory access latency per DRAM burst
system.mem_ctrls0.avgRdBW                      142.50                       # Average DRAM read bandwidth in MiByte/s
system.mem_ctrls0.avgWrBW                      113.88                       # Average achieved write bandwidth in MiByte/s
system.mem_ctrls0.avgRdBWSys                   142.53                       # Average system read bandwidth in MiByte/s
system.mem_ctrls0.avgWrBWSys                   113.89                       # Average system write bandwidth in MiByte/s
system.mem_ctrls0.peakBW                     12800.00                       # Theoretical peak bandwidth in MiByte/s
system.mem_ctrls0.busUtil                        2.00                       # Data bus utilization in percentage
system.mem_ctrls0.busUtilRead                    1.11                       # Data bus utilization in percentage for reads
system.mem_ctrls0.busUtilWrite                   0.89                       # Data bus utilization in percentage for writes
system.mem_ctrls0.avgRdQLen                      1.23                       # Average read queue length when enqueuing
system.mem_ctrls0.avgWrQLen                      2.86                       # Average write queue length when enqueuing
system.mem_ctrls0.readRowHits                   46878                       # Number of row buffer hits during reads
system.mem_ctrls0.writeRowHits                  30086                       # Number of row buffer hits during writes
system.mem_ctrls0.readRowHitRate                60.54                       # Row buffer hit rate for reads
system.mem_ctrls0.writeRowHitRate               48.62                       # Row buffer hit rate for writes
system.mem_ctrls0.avgGap                    249584.66                       # Average gap between requests
system.mem_ctrls0.pageHitRate                   55.24                       # Row buffer hit rate, read and write combined
system.mem_ctrls0.memoryStateTime::IDLE    8382009750                       # Time in different power states
system.mem_ctrls0.memoryStateTime::REF     1161160000                       # Time in different power states
system.mem_ctrls0.memoryStateTime::PRE_PDN            0                       # Time in different power states
system.mem_ctrls0.memoryStateTime::ACT    25230496500                       # Time in different power states
system.mem_ctrls0.memoryStateTime::ACT_PDN            0                       # Time in different power states
system.mem_ctrls0.actEnergy::0              234254160                       # Energy for activate commands per rank (pJ)
system.mem_ctrls0.actEnergy::1              236968200                       # Energy for activate commands per rank (pJ)
system.mem_ctrls0.preEnergy::0              127817250                       # Energy for precharge commands per rank (pJ)
system.mem_ctrls0.preEnergy::1              129298125                       # Energy for precharge commands per rank (pJ)
system.mem_ctrls0.readEnergy::0             304395000                       # Energy for read commands per rank (pJ)
system.mem_ctrls0.readEnergy::1             299449800                       # Energy for read commands per rank (pJ)
system.mem_ctrls0.writeEnergy::0            199344240                       # Energy for write commands per rank (pJ)
system.mem_ctrls0.writeEnergy::1            201612240                       # Energy for write commands per rank (pJ)
system.mem_ctrls0.refreshEnergy::0         2271228960                       # Energy for refresh commands per rank (pJ)
system.mem_ctrls0.refreshEnergy::1         2271228960                       # Energy for refresh commands per rank (pJ)
system.mem_ctrls0.actBackEnergy::0        13275362700                       # Energy for active background per rank (pJ)
system.mem_ctrls0.actBackEnergy::1        12801991095                       # Energy for active background per rank (pJ)
system.mem_ctrls0.preBackEnergy::0         9219136500                       # Energy for precharge background per rank (pJ)
system.mem_ctrls0.preBackEnergy::1         9634374750                       # Energy for precharge background per rank (pJ)
system.mem_ctrls0.totalEnergy::0          25631538810                       # Total energy per rank (pJ)
system.mem_ctrls0.totalEnergy::1          25574923170                       # Total energy per rank (pJ)
system.mem_ctrls0.averagePower::0          737.096536                       # Core power per rank (mW)
system.mem_ctrls0.averagePower::1          735.468417                       # Core power per rank (mW)
system.mem_ctrls1.bytes_read::ruby.dir_cntrl1      4871104                       # Number of bytes read from this memory
system.mem_ctrls1.bytes_read::total           4871104                       # Number of bytes read from this memory
system.mem_ctrls1.bytes_written::ruby.dir_cntrl1      3883584                       # Number of bytes written to this memory
system.mem_ctrls1.bytes_written::total        3883584                       # Number of bytes written to this memory
system.mem_ctrls1.num_reads::ruby.dir_cntrl1        76111                       # Number of read requests responded to by this memory
system.mem_ctrls1.num_reads::total              76111                       # Number of read requests responded to by this memory
system.mem_ctrls1.num_writes::ruby.dir_cntrl1        60681                       # Number of write requests responded to by this memory
system.mem_ctrls1.num_writes::total             60681                       # Number of write requests responded to by this memory
system.mem_ctrls1.bw_read::ruby.dir_cntrl1    140070378                       # Total read bandwidth from this memory (bytes/s)
system.mem_ctrls1.bw_read::total            140070378                       # Total read bandwidth from this memory (bytes/s)
system.mem_ctrls1.bw_write::ruby.dir_cntrl1    111673879                       # Write bandwidth from this memory (bytes/s)
system.mem_ctrls1.bw_write::total           111673879                       # Write bandwidth from this memory (bytes/s)
system.mem_ctrls1.bw_total::ruby.dir_cntrl1    251744257                       # Total bandwidth to/from this memory (bytes/s)
system.mem_ctrls1.bw_total::total           251744257                       # Total bandwidth to/from this memory (bytes/s)
system.mem_ctrls1.readReqs                      76111                       # Number of read requests accepted
system.mem_ctrls1.writeReqs                     60681                       # Number of write requests accepted
system.mem_ctrls1.readBursts                    76111                       # Number of DRAM read bursts, including those serviced by the write queue
system.mem_ctrls1.writeBursts                   60681                       # Number of DRAM write bursts, including those merged in the write queue
system.mem_ctrls1.bytesReadDRAM               4870336                       # Total number of bytes read from DRAM
system.mem_ctrls1.bytesReadWrQ                    768                       # Total number of bytes read from write queue
system.mem_ctrls1.bytesWritten                3883456                       # Total number of bytes written to DRAM
system.mem_ctrls1.bytesReadSys                4871104                       # Total read bytes from the system interface side
system.mem_ctrls1.bytesWrittenSys             3883584                       # Total written bytes from the system interface side
system.mem_ctrls1.servicedByWrQ                    12                       # Number of DRAM read bursts serviced by the write queue
system.mem_ctrls1.mergedWrBursts                    0                       # Number of DRAM write bursts merged with an existing one
system.mem_ctrls1.neitherReadNorWriteReqs            0                       # Number of requests that are neither read nor write
system.mem_ctrls1.perBankRdBursts::0             4321                       # Per bank write bursts
system.mem_ctrls1.perBankRdBursts::1             4730                       # Per bank write bursts
system.mem_ctrls1.perBankRdBursts::2             4441                       # Per bank write bursts
system.mem_ctrls1.perBankRdBursts::3             4879                       # Per bank write bursts
system.mem_ctrls1.perBankRdBursts::4             4773                       # Per bank write bursts
system.mem_ctrls1.perBankRdBursts::5             5281                       # Per bank write bursts
system.mem_ctrls1.perBankRdBursts::6             4883                       # Per bank write bursts
system.mem_ctrls1.perBankRdBursts::7             5157                       # Per bank write bursts
system.mem_ctrls1.perBankRdBursts::8             4909                       # Per bank write bursts
system.mem_ctrls1.perBankRdBursts::9             5082                       # Per bank write bursts
system.mem_ctrls1.perBankRdBursts::10            4506                       # Per bank write bursts
system.mem_ctrls1.perBankRdBursts::11            4720                       # Per bank write bursts
system.mem_ctrls1.perBankRdBursts::12            4476                       # Per bank write bursts
system.mem_ctrls1.perBankRdBursts::13            4566                       # Per bank write bursts
system.mem_ctrls1.perBankRdBursts::14            4636                       # Per bank write bursts
system.mem_ctrls1.perBankRdBursts::15            4739                       # Per bank write bursts
system.mem_ctrls1.perBankWrBursts::0             3562                       # Per bank write bursts
system.mem_ctrls1.perBankWrBursts::1             3517                       # Per bank write bursts
system.mem_ctrls1.perBankWrBursts::2             3562                       # Per bank write bursts
system.mem_ctrls1.perBankWrBursts::3             3724                       # Per bank write bursts
system.mem_ctrls1.perBankWrBursts::4             3804                       # Per bank write bursts
system.mem_ctrls1.perBankWrBursts::5             4118                       # Per bank write bursts
system.mem_ctrls1.perBankWrBursts::6             3838                       # Per bank write bursts
system.mem_ctrls1.perBankWrBursts::7             4107                       # Per bank write bursts
system.mem_ctrls1.perBankWrBursts::8             3941                       # Per bank write bursts
system.mem_ctrls1.perBankWrBursts::9             4008                       # Per bank write bursts
system.mem_ctrls1.perBankWrBursts::10            3603                       # Per bank write bursts
system.mem_ctrls1.perBankWrBursts::11            3576                       # Per bank write bursts
system.mem_ctrls1.perBankWrBursts::12            3704                       # Per bank write bursts
system.mem_ctrls1.perBankWrBursts::13            3838                       # Per bank write bursts
system.mem_ctrls1.perBankWrBursts::14            3924                       # Per bank write bursts
system.mem_ctrls1.perBankWrBursts::15            3853                       # Per bank write bursts
system.mem_ctrls1.numRdRetry                     2200                       # Number of times read queue was full causing retry
system.mem_ctrls1.numWrRetry                     3699                       # Number of times write queue was full causing retry
system.mem_ctrls1.totGap                  34775390000                       # Total gap between requests
system.mem_ctrls1.readPktSize::0                    0                       # Read request sizes (log2)
system.mem_ctrls1.readPktSize::1                    0                       # Read request sizes (log2)
system.mem_ctrls1.readPktSize::2                    0                       # Read request sizes (log2)
system.mem_ctrls1.readPktSize::3                    0                       # Read request sizes (log2)
system.mem_ctrls1.readPktSize::4                    0                       # Read request sizes (log2)
system.mem_ctrls1.readPktSize::5                    0                       # Read request sizes (log2)
system.mem_ctrls1.readPktSize::6                76111                       # Read request sizes (log2)
system.mem_ctrls1.writePktSize::0                   0                       # Write request sizes (log2)
system.mem_ctrls1.writePktSize::1                   0                       # Write request sizes (log2)
system.mem_ctrls1.writePktSize::2                   0                       # Write request sizes (log2)
system.mem_ctrls1.writePktSize::3                   0                       # Write request sizes (log2)
system.mem_ctrls1.writePktSize::4                   0                       # Write request sizes (log2)
system.mem_ctrls1.writePktSize::5                   0                       # Write request sizes (log2)
system.mem_ctrls1.writePktSize::6               60681                       # Write request sizes (log2)
system.mem_ctrls1.rdQLenPdf::0                  40924                       # What read queue length does an incoming req see
system.mem_ctrls1.rdQLenPdf::1                   7433                       # What read queue length does an incoming req see
system.mem_ctrls1.rdQLenPdf::2                   5544                       # What read queue length does an incoming req see
system.mem_ctrls1.rdQLenPdf::3                   4240                       # What read queue length does an incoming req see
system.mem_ctrls1.rdQLenPdf::4                   3083                       # What read queue length does an incoming req see
system.mem_ctrls1.rdQLenPdf::5                   2061                       # What read queue length does an incoming req see
system.mem_ctrls1.rdQLenPdf::6                   1399                       # What read queue length does an incoming req see
system.mem_ctrls1.rdQLenPdf::7                   1077                       # What read queue length does an incoming req see
system.mem_ctrls1.rdQLenPdf::8                    816                       # What read queue length does an incoming req see
system.mem_ctrls1.rdQLenPdf::9                    702                       # What read queue length does an incoming req see
system.mem_ctrls1.rdQLenPdf::10                   589                       # What read queue length does an incoming req see
system.mem_ctrls1.rdQLenPdf::11                   506                       # What read queue length does an incoming req see
system.mem_ctrls1.rdQLenPdf::12                   486                       # What read queue length does an incoming req see
system.mem_ctrls1.rdQLenPdf::13                   463                       # What read queue length does an incoming req see
system.mem_ctrls1.rdQLenPdf::14                   425                       # What read queue length does an incoming req see
system.mem_ctrls1.rdQLenPdf::15                   386                       # What read queue length does an incoming req see
system.mem_ctrls1.rdQLenPdf::16                   379                       # What read queue length does an incoming req see
system.mem_ctrls1.rdQLenPdf::17                   359                       # What read queue length does an incoming req see
system.mem_ctrls1.rdQLenPdf::18                   334                       # What read queue length does an incoming req see
system.mem_ctrls1.rdQLenPdf::19                   304                       # What read queue length does an incoming req see
system.mem_ctrls1.rdQLenPdf::20                   274                       # What read queue length does an incoming req see
system.mem_ctrls1.rdQLenPdf::21                   265                       # What read queue length does an incoming req see
system.mem_ctrls1.rdQLenPdf::22                   239                       # What read queue length does an incoming req see
system.mem_ctrls1.rdQLenPdf::23                   229                       # What read queue length does an incoming req see
system.mem_ctrls1.rdQLenPdf::24                   209                       # What read queue length does an incoming req see
system.mem_ctrls1.rdQLenPdf::25                   192                       # What read queue length does an incoming req see
system.mem_ctrls1.rdQLenPdf::26                   159                       # What read queue length does an incoming req see
system.mem_ctrls1.rdQLenPdf::27                   146                       # What read queue length does an incoming req see
system.mem_ctrls1.rdQLenPdf::28                   118                       # What read queue length does an incoming req see
system.mem_ctrls1.rdQLenPdf::29                   124                       # What read queue length does an incoming req see
system.mem_ctrls1.rdQLenPdf::30                   153                       # What read queue length does an incoming req see
system.mem_ctrls1.rdQLenPdf::31                  2481                       # What read queue length does an incoming req see
system.mem_ctrls1.wrQLenPdf::0                   9065                       # What write queue length does an incoming req see
system.mem_ctrls1.wrQLenPdf::1                  10545                       # What write queue length does an incoming req see
system.mem_ctrls1.wrQLenPdf::2                  10798                       # What write queue length does an incoming req see
system.mem_ctrls1.wrQLenPdf::3                  10837                       # What write queue length does an incoming req see
system.mem_ctrls1.wrQLenPdf::4                  10628                       # What write queue length does an incoming req see
system.mem_ctrls1.wrQLenPdf::5                   2052                       # What write queue length does an incoming req see
system.mem_ctrls1.wrQLenPdf::6                   1655                       # What write queue length does an incoming req see
system.mem_ctrls1.wrQLenPdf::7                   5101                       # What write queue length does an incoming req see
system.mem_ctrls1.bytesPerActivate::samples        60512                       # Bytes accessed per row activation
system.mem_ctrls1.bytesPerActivate::mean   144.643046                       # Bytes accessed per row activation
system.mem_ctrls1.bytesPerActivate::gmean   103.475455                       # Bytes accessed per row activation
system.mem_ctrls1.bytesPerActivate::stdev   163.869951                       # Bytes accessed per row activation
system.mem_ctrls1.bytesPerActivate::0-127        37587     62.11%     62.11% # Bytes accessed per row activation
system.mem_ctrls1.bytesPerActivate::128-255        12379     20.46%     82.57% # Bytes accessed per row activation
system.mem_ctrls1.bytesPerActivate::256-383         6313     10.43%     93.00% # Bytes accessed per row activation
system.mem_ctrls1.bytesPerActivate::384-511         1477      2.44%     95.45% # Bytes accessed per row activation
system.mem_ctrls1.bytesPerActivate::512-639          915      1.51%     96.96% # Bytes accessed per row activation
system.mem_ctrls1.bytesPerActivate::640-767          548      0.91%     97.86% # Bytes accessed per row activation
system.mem_ctrls1.bytesPerActivate::768-895          389      0.64%     98.51% # Bytes accessed per row activation
system.mem_ctrls1.bytesPerActivate::896-1023          253      0.42%     98.92% # Bytes accessed per row activation
system.mem_ctrls1.bytesPerActivate::1024-1151          651      1.08%    100.00% # Bytes accessed per row activation
system.mem_ctrls1.bytesPerActivate::total        60512                       # Bytes accessed per row activation
system.mem_ctrls1.rdPerTurnAround::samples         9527                       # Reads before turning the bus around for writes
system.mem_ctrls1.rdPerTurnAround::mean      7.986984                       # Reads before turning the bus around for writes
system.mem_ctrls1.rdPerTurnAround::stdev    32.802062                       # Reads before turning the bus around for writes
system.mem_ctrls1.rdPerTurnAround::0-127         9522     99.95%     99.95% # Reads before turning the bus around for writes
system.mem_ctrls1.rdPerTurnAround::128-255            3      0.03%     99.98% # Reads before turning the bus around for writes
system.mem_ctrls1.rdPerTurnAround::1152-1279            1      0.01%     99.99% # Reads before turning the bus around for writes
system.mem_ctrls1.rdPerTurnAround::2816-2943            1      0.01%    100.00% # Reads before turning the bus around for writes
system.mem_ctrls1.rdPerTurnAround::total         9527                       # Reads before turning the bus around for writes
system.mem_ctrls1.wrPerTurnAround::samples         9527                       # Writes before turning the bus around for reads
system.mem_ctrls1.wrPerTurnAround::mean      6.369161                       # Writes before turning the bus around for reads
system.mem_ctrls1.wrPerTurnAround::gmean     5.949293                       # Writes before turning the bus around for reads
system.mem_ctrls1.wrPerTurnAround::stdev     2.929335                       # Writes before turning the bus around for reads
system.mem_ctrls1.wrPerTurnAround::4-7           7978     83.74%     83.74% # Writes before turning the bus around for reads
system.mem_ctrls1.wrPerTurnAround::8-11           749      7.86%     91.60% # Writes before turning the bus around for reads
system.mem_ctrls1.wrPerTurnAround::12-15          259      2.72%     94.32% # Writes before turning the bus around for reads
system.mem_ctrls1.wrPerTurnAround::16-19          541      5.68%    100.00% # Writes before turning the bus around for reads
system.mem_ctrls1.wrPerTurnAround::total         9527                       # Writes before turning the bus around for reads
system.mem_ctrls1.totQLat                  5676621479                       # Total ticks spent queuing
system.mem_ctrls1.totMemAccLat             7103477729                       # Total ticks spent from burst creation until serviced by the DRAM
system.mem_ctrls1.totBusLat                 380495000                       # Total ticks spent in databus transfers
system.mem_ctrls1.avgQLat                    74595.22                       # Average queueing delay per DRAM burst
system.mem_ctrls1.avgBusLat                   5000.00                       # Average bus latency per DRAM burst
system.mem_ctrls1.avgMemAccLat               93345.22                       # Average memory access latency per DRAM burst
system.mem_ctrls1.avgRdBW                      140.05                       # Average DRAM read bandwidth in MiByte/s
system.mem_ctrls1.avgWrBW                      111.67                       # Average achieved write bandwidth in MiByte/s
system.mem_ctrls1.avgRdBWSys                   140.07                       # Average system read bandwidth in MiByte/s
system.mem_ctrls1.avgWrBWSys                   111.67                       # Average system write bandwidth in MiByte/s
system.mem_ctrls1.peakBW                     12800.00                       # Theoretical peak bandwidth in MiByte/s
system.mem_ctrls1.busUtil                        1.97                       # Data bus utilization in percentage
system.mem_ctrls1.busUtilRead                    1.09                       # Data bus utilization in percentage for reads
system.mem_ctrls1.busUtilWrite                   0.87                       # Data bus utilization in percentage for writes
system.mem_ctrls1.avgRdQLen                      1.20                       # Average read queue length when enqueuing
system.mem_ctrls1.avgWrQLen                      2.92                       # Average write queue length when enqueuing
system.mem_ctrls1.readRowHits                   46112                       # Number of row buffer hits during reads
system.mem_ctrls1.writeRowHits                  30144                       # Number of row buffer hits during writes
system.mem_ctrls1.readRowHitRate                60.59                       # Row buffer hit rate for reads
system.mem_ctrls1.writeRowHitRate               49.68                       # Row buffer hit rate for writes
system.mem_ctrls1.avgGap                    254220.93                       # Average gap between requests
system.mem_ctrls1.pageHitRate                   55.75                       # Row buffer hit rate, read and write combined
system.mem_ctrls1.memoryStateTime::IDLE    8737929250                       # Time in different power states
system.mem_ctrls1.memoryStateTime::REF     1161160000                       # Time in different power states
system.mem_ctrls1.memoryStateTime::PRE_PDN            0                       # Time in different power states
system.mem_ctrls1.memoryStateTime::ACT    24874863250                       # Time in different power states
system.mem_ctrls1.memoryStateTime::ACT_PDN            0                       # Time in different power states
system.mem_ctrls1.actEnergy::0              229468680                       # Energy for activate commands per rank (pJ)
system.mem_ctrls1.actEnergy::1              227941560                       # Energy for activate commands per rank (pJ)
system.mem_ctrls1.preEnergy::0              125206125                       # Energy for precharge commands per rank (pJ)
system.mem_ctrls1.preEnergy::1              124372875                       # Energy for precharge commands per rank (pJ)
system.mem_ctrls1.readEnergy::0             299964600                       # Energy for read commands per rank (pJ)
system.mem_ctrls1.readEnergy::1             293482800                       # Energy for read commands per rank (pJ)
system.mem_ctrls1.writeEnergy::0            195896880                       # Energy for write commands per rank (pJ)
system.mem_ctrls1.writeEnergy::1            197238240                       # Energy for write commands per rank (pJ)
system.mem_ctrls1.refreshEnergy::0         2271228960                       # Energy for refresh commands per rank (pJ)
system.mem_ctrls1.refreshEnergy::1         2271228960                       # Energy for refresh commands per rank (pJ)
system.mem_ctrls1.actBackEnergy::0        13145964435                       # Energy for active background per rank (pJ)
system.mem_ctrls1.actBackEnergy::1        12399567390                       # Energy for active background per rank (pJ)
system.mem_ctrls1.preBackEnergy::0         9332643750                       # Energy for precharge background per rank (pJ)
system.mem_ctrls1.preBackEnergy::1         9987378000                       # Energy for precharge background per rank (pJ)
system.mem_ctrls1.totalEnergy::0          25600373430                       # Total energy per rank (pJ)
system.mem_ctrls1.totalEnergy::1          25501209825                       # Total energy per rank (pJ)
system.mem_ctrls1.averagePower::0          736.200301                       # Core power per rank (mW)
system.mem_ctrls1.averagePower::1          733.348613                       # Core power per rank (mW)
system.mem_ctrls2.bytes_read::ruby.dir_cntrl2      4872384                       # Number of bytes read from this memory
system.mem_ctrls2.bytes_read::total           4872384                       # Number of bytes read from this memory
system.mem_ctrls2.bytes_written::ruby.dir_cntrl2      3884608                       # Number of bytes written to this memory
system.mem_ctrls2.bytes_written::total        3884608                       # Number of bytes written to this memory
system.mem_ctrls2.num_reads::ruby.dir_cntrl2        76131                       # Number of read requests responded to by this memory
system.mem_ctrls2.num_reads::total              76131                       # Number of read requests responded to by this memory
system.mem_ctrls2.num_writes::ruby.dir_cntrl2        60697                       # Number of write requests responded to by this memory
system.mem_ctrls2.num_writes::total             60697                       # Number of write requests responded to by this memory
system.mem_ctrls2.bw_read::ruby.dir_cntrl2    140107185                       # Total read bandwidth from this memory (bytes/s)
system.mem_ctrls2.bw_read::total            140107185                       # Total read bandwidth from this memory (bytes/s)
system.mem_ctrls2.bw_write::ruby.dir_cntrl2    111703325                       # Write bandwidth from this memory (bytes/s)
system.mem_ctrls2.bw_write::total           111703325                       # Write bandwidth from this memory (bytes/s)
system.mem_ctrls2.bw_total::ruby.dir_cntrl2    251810510                       # Total bandwidth to/from this memory (bytes/s)
system.mem_ctrls2.bw_total::total           251810510                       # Total bandwidth to/from this memory (bytes/s)
system.mem_ctrls2.readReqs                      76131                       # Number of read requests accepted
system.mem_ctrls2.writeReqs                     60697                       # Number of write requests accepted
system.mem_ctrls2.readBursts                    76131                       # Number of DRAM read bursts, including those serviced by the write queue
system.mem_ctrls2.writeBursts                   60697                       # Number of DRAM write bursts, including those merged in the write queue
system.mem_ctrls2.bytesReadDRAM               4871424                       # Total number of bytes read from DRAM
system.mem_ctrls2.bytesReadWrQ                    960                       # Total number of bytes read from write queue
system.mem_ctrls2.bytesWritten                3884544                       # Total number of bytes written to DRAM
system.mem_ctrls2.bytesReadSys                4872384                       # Total read bytes from the system interface side
system.mem_ctrls2.bytesWrittenSys             3884608                       # Total written bytes from the system interface side
system.mem_ctrls2.servicedByWrQ                    15                       # Number of DRAM read bursts serviced by the write queue
system.mem_ctrls2.mergedWrBursts                    0                       # Number of DRAM write bursts merged with an existing one
system.mem_ctrls2.neitherReadNorWriteReqs            0                       # Number of requests that are neither read nor write
system.mem_ctrls2.perBankRdBursts::0             4314                       # Per bank write bursts
system.mem_ctrls2.perBankRdBursts::1             4738                       # Per bank write bursts
system.mem_ctrls2.perBankRdBursts::2             4449                       # Per bank write bursts
system.mem_ctrls2.perBankRdBursts::3             4891                       # Per bank write bursts
system.mem_ctrls2.perBankRdBursts::4             4774                       # Per bank write bursts
system.mem_ctrls2.perBankRdBursts::5             5280                       # Per bank write bursts
system.mem_ctrls2.perBankRdBursts::6             4862                       # Per bank write bursts
system.mem_ctrls2.perBankRdBursts::7             5157                       # Per bank write bursts
system.mem_ctrls2.perBankRdBursts::8             4894                       # Per bank write bursts
system.mem_ctrls2.perBankRdBursts::9             5099                       # Per bank write bursts
system.mem_ctrls2.perBankRdBursts::10            4508                       # Per bank write bursts
system.mem_ctrls2.perBankRdBursts::11            4760                       # Per bank write bursts
system.mem_ctrls2.perBankRdBursts::12            4481                       # Per bank write bursts
system.mem_ctrls2.perBankRdBursts::13            4534                       # Per bank write bursts
system.mem_ctrls2.perBankRdBursts::14            4625                       # Per bank write bursts
system.mem_ctrls2.perBankRdBursts::15            4750                       # Per bank write bursts
system.mem_ctrls2.perBankWrBursts::0             3561                       # Per bank write bursts
system.mem_ctrls2.perBankWrBursts::1             3522                       # Per bank write bursts
system.mem_ctrls2.perBankWrBursts::2             3560                       # Per bank write bursts
system.mem_ctrls2.perBankWrBursts::3             3713                       # Per bank write bursts
system.mem_ctrls2.perBankWrBursts::4             3805                       # Per bank write bursts
system.mem_ctrls2.perBankWrBursts::5             4114                       # Per bank write bursts
system.mem_ctrls2.perBankWrBursts::6             3843                       # Per bank write bursts
system.mem_ctrls2.perBankWrBursts::7             4119                       # Per bank write bursts
system.mem_ctrls2.perBankWrBursts::8             3943                       # Per bank write bursts
system.mem_ctrls2.perBankWrBursts::9             4019                       # Per bank write bursts
system.mem_ctrls2.perBankWrBursts::10            3602                       # Per bank write bursts
system.mem_ctrls2.perBankWrBursts::11            3582                       # Per bank write bursts
system.mem_ctrls2.perBankWrBursts::12            3713                       # Per bank write bursts
system.mem_ctrls2.perBankWrBursts::13            3826                       # Per bank write bursts
system.mem_ctrls2.perBankWrBursts::14            3925                       # Per bank write bursts
system.mem_ctrls2.perBankWrBursts::15            3849                       # Per bank write bursts
system.mem_ctrls2.numRdRetry                     2003                       # Number of times read queue was full causing retry
system.mem_ctrls2.numWrRetry                     3705                       # Number of times write queue was full causing retry
system.mem_ctrls2.totGap                  34775878000                       # Total gap between requests
system.mem_ctrls2.readPktSize::0                    0                       # Read request sizes (log2)
system.mem_ctrls2.readPktSize::1                    0                       # Read request sizes (log2)
system.mem_ctrls2.readPktSize::2                    0                       # Read request sizes (log2)
system.mem_ctrls2.readPktSize::3                    0                       # Read request sizes (log2)
system.mem_ctrls2.readPktSize::4                    0                       # Read request sizes (log2)
system.mem_ctrls2.readPktSize::5                    0                       # Read request sizes (log2)
system.mem_ctrls2.readPktSize::6                76131                       # Read request sizes (log2)
system.mem_ctrls2.writePktSize::0                   0                       # Write request sizes (log2)
system.mem_ctrls2.writePktSize::1                   0                       # Write request sizes (log2)
system.mem_ctrls2.writePktSize::2                   0                       # Write request sizes (log2)
system.mem_ctrls2.writePktSize::3                   0                       # Write request sizes (log2)
system.mem_ctrls2.writePktSize::4                   0                       # Write request sizes (log2)
system.mem_ctrls2.writePktSize::5                   0                       # Write request sizes (log2)
system.mem_ctrls2.writePktSize::6               60697                       # Write request sizes (log2)
system.mem_ctrls2.rdQLenPdf::0                  41020                       # What read queue length does an incoming req see
system.mem_ctrls2.rdQLenPdf::1                   7439                       # What read queue length does an incoming req see
system.mem_ctrls2.rdQLenPdf::2                   5555                       # What read queue length does an incoming req see
system.mem_ctrls2.rdQLenPdf::3                   4166                       # What read queue length does an incoming req see
system.mem_ctrls2.rdQLenPdf::4                   3004                       # What read queue length does an incoming req see
system.mem_ctrls2.rdQLenPdf::5                   2087                       # What read queue length does an incoming req see
system.mem_ctrls2.rdQLenPdf::6                   1462                       # What read queue length does an incoming req see
system.mem_ctrls2.rdQLenPdf::7                   1096                       # What read queue length does an incoming req see
system.mem_ctrls2.rdQLenPdf::8                    871                       # What read queue length does an incoming req see
system.mem_ctrls2.rdQLenPdf::9                    685                       # What read queue length does an incoming req see
system.mem_ctrls2.rdQLenPdf::10                   599                       # What read queue length does an incoming req see
system.mem_ctrls2.rdQLenPdf::11                   521                       # What read queue length does an incoming req see
system.mem_ctrls2.rdQLenPdf::12                   487                       # What read queue length does an incoming req see
system.mem_ctrls2.rdQLenPdf::13                   453                       # What read queue length does an incoming req see
system.mem_ctrls2.rdQLenPdf::14                   387                       # What read queue length does an incoming req see
system.mem_ctrls2.rdQLenPdf::15                   375                       # What read queue length does an incoming req see
system.mem_ctrls2.rdQLenPdf::16                   349                       # What read queue length does an incoming req see
system.mem_ctrls2.rdQLenPdf::17                   340                       # What read queue length does an incoming req see
system.mem_ctrls2.rdQLenPdf::18                   320                       # What read queue length does an incoming req see
system.mem_ctrls2.rdQLenPdf::19                   297                       # What read queue length does an incoming req see
system.mem_ctrls2.rdQLenPdf::20                   295                       # What read queue length does an incoming req see
system.mem_ctrls2.rdQLenPdf::21                   280                       # What read queue length does an incoming req see
system.mem_ctrls2.rdQLenPdf::22                   266                       # What read queue length does an incoming req see
system.mem_ctrls2.rdQLenPdf::23                   247                       # What read queue length does an incoming req see
system.mem_ctrls2.rdQLenPdf::24                   231                       # What read queue length does an incoming req see
system.mem_ctrls2.rdQLenPdf::25                   205                       # What read queue length does an incoming req see
system.mem_ctrls2.rdQLenPdf::26                   199                       # What read queue length does an incoming req see
system.mem_ctrls2.rdQLenPdf::27                   143                       # What read queue length does an incoming req see
system.mem_ctrls2.rdQLenPdf::28                   127                       # What read queue length does an incoming req see
system.mem_ctrls2.rdQLenPdf::29                   134                       # What read queue length does an incoming req see
system.mem_ctrls2.rdQLenPdf::30                   164                       # What read queue length does an incoming req see
system.mem_ctrls2.rdQLenPdf::31                  2312                       # What read queue length does an incoming req see
system.mem_ctrls2.wrQLenPdf::0                   9038                       # What write queue length does an incoming req see
system.mem_ctrls2.wrQLenPdf::1                  10482                       # What write queue length does an incoming req see
system.mem_ctrls2.wrQLenPdf::2                  10880                       # What write queue length does an incoming req see
system.mem_ctrls2.wrQLenPdf::3                  10822                       # What write queue length does an incoming req see
system.mem_ctrls2.wrQLenPdf::4                  10593                       # What write queue length does an incoming req see
system.mem_ctrls2.wrQLenPdf::5                   2060                       # What write queue length does an incoming req see
system.mem_ctrls2.wrQLenPdf::6                   1667                       # What write queue length does an incoming req see
system.mem_ctrls2.wrQLenPdf::7                   5155                       # What write queue length does an incoming req see
system.mem_ctrls2.bytesPerActivate::samples        60479                       # Bytes accessed per row activation
system.mem_ctrls2.bytesPerActivate::mean   144.764298                       # Bytes accessed per row activation
system.mem_ctrls2.bytesPerActivate::gmean   103.581184                       # Bytes accessed per row activation
system.mem_ctrls2.bytesPerActivate::stdev   163.556530                       # Bytes accessed per row activation
system.mem_ctrls2.bytesPerActivate::0-127        37559     62.10%     62.10% # Bytes accessed per row activation
system.mem_ctrls2.bytesPerActivate::128-255        12286     20.31%     82.42% # Bytes accessed per row activation
system.mem_ctrls2.bytesPerActivate::256-383         6381     10.55%     92.97% # Bytes accessed per row activation
system.mem_ctrls2.bytesPerActivate::384-511         1513      2.50%     95.47% # Bytes accessed per row activation
system.mem_ctrls2.bytesPerActivate::512-639          930      1.54%     97.01% # Bytes accessed per row activation
system.mem_ctrls2.bytesPerActivate::640-767          506      0.84%     97.84% # Bytes accessed per row activation
system.mem_ctrls2.bytesPerActivate::768-895          415      0.69%     98.53% # Bytes accessed per row activation
system.mem_ctrls2.bytesPerActivate::896-1023          249      0.41%     98.94% # Bytes accessed per row activation
system.mem_ctrls2.bytesPerActivate::1024-1151          640      1.06%    100.00% # Bytes accessed per row activation
system.mem_ctrls2.bytesPerActivate::total        60479                       # Bytes accessed per row activation
system.mem_ctrls2.rdPerTurnAround::samples         9525                       # Reads before turning the bus around for writes
system.mem_ctrls2.rdPerTurnAround::mean      7.990341                       # Reads before turning the bus around for writes
system.mem_ctrls2.rdPerTurnAround::stdev    32.886498                       # Reads before turning the bus around for writes
system.mem_ctrls2.rdPerTurnAround::0-127         9520     99.95%     99.95% # Reads before turning the bus around for writes
system.mem_ctrls2.rdPerTurnAround::128-255            3      0.03%     99.98% # Reads before turning the bus around for writes
system.mem_ctrls2.rdPerTurnAround::1152-1279            1      0.01%     99.99% # Reads before turning the bus around for writes
system.mem_ctrls2.rdPerTurnAround::2816-2943            1      0.01%    100.00% # Reads before turning the bus around for writes
system.mem_ctrls2.rdPerTurnAround::total         9525                       # Reads before turning the bus around for writes
system.mem_ctrls2.wrPerTurnAround::samples         9525                       # Writes before turning the bus around for reads
system.mem_ctrls2.wrPerTurnAround::mean      6.372283                       # Writes before turning the bus around for reads
system.mem_ctrls2.wrPerTurnAround::gmean     5.951680                       # Writes before turning the bus around for reads
system.mem_ctrls2.wrPerTurnAround::stdev     2.936037                       # Writes before turning the bus around for reads
system.mem_ctrls2.wrPerTurnAround::4-7           7967     83.64%     83.64% # Writes before turning the bus around for reads
system.mem_ctrls2.wrPerTurnAround::8-11           765      8.03%     91.67% # Writes before turning the bus around for reads
system.mem_ctrls2.wrPerTurnAround::12-15          233      2.45%     94.12% # Writes before turning the bus around for reads
system.mem_ctrls2.wrPerTurnAround::16-19          560      5.88%    100.00% # Writes before turning the bus around for reads
system.mem_ctrls2.wrPerTurnAround::total         9525                       # Writes before turning the bus around for reads
system.mem_ctrls2.totQLat                  5601155692                       # Total ticks spent queuing
system.mem_ctrls2.totMemAccLat             7028330692                       # Total ticks spent from burst creation until serviced by the DRAM
system.mem_ctrls2.totBusLat                 380580000                       # Total ticks spent in databus transfers
system.mem_ctrls2.avgQLat                    73587.10                       # Average queueing delay per DRAM burst
system.mem_ctrls2.avgBusLat                   5000.00                       # Average bus latency per DRAM burst
system.mem_ctrls2.avgMemAccLat               92337.10                       # Average memory access latency per DRAM burst
system.mem_ctrls2.avgRdBW                      140.08                       # Average DRAM read bandwidth in MiByte/s
system.mem_ctrls2.avgWrBW                      111.70                       # Average achieved write bandwidth in MiByte/s
system.mem_ctrls2.avgRdBWSys                   140.11                       # Average system read bandwidth in MiByte/s
system.mem_ctrls2.avgWrBWSys                   111.70                       # Average system write bandwidth in MiByte/s
system.mem_ctrls2.peakBW                     12800.00                       # Theoretical peak bandwidth in MiByte/s
system.mem_ctrls2.busUtil                        1.97                       # Data bus utilization in percentage
system.mem_ctrls2.busUtilRead                    1.09                       # Data bus utilization in percentage for reads
system.mem_ctrls2.busUtilWrite                   0.87                       # Data bus utilization in percentage for writes
system.mem_ctrls2.avgRdQLen                      1.19                       # Average read queue length when enqueuing
system.mem_ctrls2.avgWrQLen                      2.94                       # Average write queue length when enqueuing
system.mem_ctrls2.readRowHits                   46123                       # Number of row buffer hits during reads
system.mem_ctrls2.writeRowHits                  30204                       # Number of row buffer hits during writes
system.mem_ctrls2.readRowHitRate                60.60                       # Row buffer hit rate for reads
system.mem_ctrls2.writeRowHitRate               49.76                       # Row buffer hit rate for writes
system.mem_ctrls2.avgGap                    254157.61                       # Average gap between requests
system.mem_ctrls2.pageHitRate                   55.79                       # Row buffer hit rate, read and write combined
system.mem_ctrls2.memoryStateTime::IDLE    8719342500                       # Time in different power states
system.mem_ctrls2.memoryStateTime::REF     1161160000                       # Time in different power states
system.mem_ctrls2.memoryStateTime::PRE_PDN            0                       # Time in different power states
system.mem_ctrls2.memoryStateTime::ACT    24893406500                       # Time in different power states
system.mem_ctrls2.memoryStateTime::ACT_PDN            0                       # Time in different power states
system.mem_ctrls2.actEnergy::0              229279680                       # Energy for activate commands per rank (pJ)
system.mem_ctrls2.actEnergy::1              227911320                       # Energy for activate commands per rank (pJ)
system.mem_ctrls2.preEnergy::0              125103000                       # Energy for precharge commands per rank (pJ)
system.mem_ctrls2.preEnergy::1              124356375                       # Energy for precharge commands per rank (pJ)
system.mem_ctrls2.readEnergy::0             299972400                       # Energy for read commands per rank (pJ)
system.mem_ctrls2.readEnergy::1             293646600                       # Energy for read commands per rank (pJ)
system.mem_ctrls2.writeEnergy::0            195935760                       # Energy for write commands per rank (pJ)
system.mem_ctrls2.writeEnergy::1            197341920                       # Energy for write commands per rank (pJ)
system.mem_ctrls2.refreshEnergy::0         2271228960                       # Energy for refresh commands per rank (pJ)
system.mem_ctrls2.refreshEnergy::1         2271228960                       # Energy for refresh commands per rank (pJ)
system.mem_ctrls2.actBackEnergy::0        13029761385                       # Energy for active background per rank (pJ)
system.mem_ctrls2.actBackEnergy::1        12529641105                       # Energy for active background per rank (pJ)
system.mem_ctrls2.preBackEnergy::0         9434576250                       # Energy for precharge background per rank (pJ)
system.mem_ctrls2.preBackEnergy::1         9873278250                       # Energy for precharge background per rank (pJ)
system.mem_ctrls2.totalEnergy::0          25585857435                       # Total energy per rank (pJ)
system.mem_ctrls2.totalEnergy::1          25517404530                       # Total energy per rank (pJ)
system.mem_ctrls2.averagePower::0          735.782858                       # Core power per rank (mW)
system.mem_ctrls2.averagePower::1          733.814331                       # Core power per rank (mW)
system.mem_ctrls3.bytes_read::ruby.dir_cntrl3      4847616                       # Number of bytes read from this memory
system.mem_ctrls3.bytes_read::total           4847616                       # Number of bytes read from this memory
system.mem_ctrls3.bytes_written::ruby.dir_cntrl3      3876928                       # Number of bytes written to this memory
system.mem_ctrls3.bytes_written::total        3876928                       # Number of bytes written to this memory
system.mem_ctrls3.num_reads::ruby.dir_cntrl3        75744                       # Number of read requests responded to by this memory
system.mem_ctrls3.num_reads::total              75744                       # Number of read requests responded to by this memory
system.mem_ctrls3.num_writes::ruby.dir_cntrl3        60577                       # Number of write requests responded to by this memory
system.mem_ctrls3.num_writes::total             60577                       # Number of write requests responded to by this memory
system.mem_ctrls3.bw_read::ruby.dir_cntrl3    139394972                       # Total read bandwidth from this memory (bytes/s)
system.mem_ctrls3.bw_read::total            139394972                       # Total read bandwidth from this memory (bytes/s)
system.mem_ctrls3.bw_write::ruby.dir_cntrl3    111482483                       # Write bandwidth from this memory (bytes/s)
system.mem_ctrls3.bw_write::total           111482483                       # Write bandwidth from this memory (bytes/s)
system.mem_ctrls3.bw_total::ruby.dir_cntrl3    250877456                       # Total bandwidth to/from this memory (bytes/s)
system.mem_ctrls3.bw_total::total           250877456                       # Total bandwidth to/from this memory (bytes/s)
system.mem_ctrls3.readReqs                      75745                       # Number of read requests accepted
system.mem_ctrls3.writeReqs                     60577                       # Number of write requests accepted
system.mem_ctrls3.readBursts                    75745                       # Number of DRAM read bursts, including those serviced by the write queue
system.mem_ctrls3.writeBursts                   60577                       # Number of DRAM write bursts, including those merged in the write queue
system.mem_ctrls3.bytesReadDRAM               4847104                       # Total number of bytes read from DRAM
system.mem_ctrls3.bytesReadWrQ                    576                       # Total number of bytes read from write queue
system.mem_ctrls3.bytesWritten                3876736                       # Total number of bytes written to DRAM
system.mem_ctrls3.bytesReadSys                4847680                       # Total read bytes from the system interface side
system.mem_ctrls3.bytesWrittenSys             3876928                       # Total written bytes from the system interface side
system.mem_ctrls3.servicedByWrQ                     9                       # Number of DRAM read bursts serviced by the write queue
system.mem_ctrls3.mergedWrBursts                    0                       # Number of DRAM write bursts merged with an existing one
system.mem_ctrls3.neitherReadNorWriteReqs            0                       # Number of requests that are neither read nor write
system.mem_ctrls3.perBankRdBursts::0             4290                       # Per bank write bursts
system.mem_ctrls3.perBankRdBursts::1             4699                       # Per bank write bursts
system.mem_ctrls3.perBankRdBursts::2             4395                       # Per bank write bursts
system.mem_ctrls3.perBankRdBursts::3             4846                       # Per bank write bursts
system.mem_ctrls3.perBankRdBursts::4             4731                       # Per bank write bursts
system.mem_ctrls3.perBankRdBursts::5             5224                       # Per bank write bursts
system.mem_ctrls3.perBankRdBursts::6             4865                       # Per bank write bursts
system.mem_ctrls3.perBankRdBursts::7             5141                       # Per bank write bursts
system.mem_ctrls3.perBankRdBursts::8             4893                       # Per bank write bursts
system.mem_ctrls3.perBankRdBursts::9             5082                       # Per bank write bursts
system.mem_ctrls3.perBankRdBursts::10            4507                       # Per bank write bursts
system.mem_ctrls3.perBankRdBursts::11            4721                       # Per bank write bursts
system.mem_ctrls3.perBankRdBursts::12            4467                       # Per bank write bursts
system.mem_ctrls3.perBankRdBursts::13            4509                       # Per bank write bursts
system.mem_ctrls3.perBankRdBursts::14            4638                       # Per bank write bursts
system.mem_ctrls3.perBankRdBursts::15            4728                       # Per bank write bursts
system.mem_ctrls3.perBankWrBursts::0             3557                       # Per bank write bursts
system.mem_ctrls3.perBankWrBursts::1             3513                       # Per bank write bursts
system.mem_ctrls3.perBankWrBursts::2             3548                       # Per bank write bursts
system.mem_ctrls3.perBankWrBursts::3             3699                       # Per bank write bursts
system.mem_ctrls3.perBankWrBursts::4             3800                       # Per bank write bursts
system.mem_ctrls3.perBankWrBursts::5             4094                       # Per bank write bursts
system.mem_ctrls3.perBankWrBursts::6             3832                       # Per bank write bursts
system.mem_ctrls3.perBankWrBursts::7             4103                       # Per bank write bursts
system.mem_ctrls3.perBankWrBursts::8             3940                       # Per bank write bursts
system.mem_ctrls3.perBankWrBursts::9             4018                       # Per bank write bursts
system.mem_ctrls3.perBankWrBursts::10            3593                       # Per bank write bursts
system.mem_ctrls3.perBankWrBursts::11            3586                       # Per bank write bursts
system.mem_ctrls3.perBankWrBursts::12            3707                       # Per bank write bursts
system.mem_ctrls3.perBankWrBursts::13            3828                       # Per bank write bursts
system.mem_ctrls3.perBankWrBursts::14            3916                       # Per bank write bursts
system.mem_ctrls3.perBankWrBursts::15            3840                       # Per bank write bursts
system.mem_ctrls3.numRdRetry                     1955                       # Number of times read queue was full causing retry
system.mem_ctrls3.numWrRetry                     3566                       # Number of times write queue was full causing retry
system.mem_ctrls3.totGap                  34775369500                       # Total gap between requests
system.mem_ctrls3.readPktSize::0                    0                       # Read request sizes (log2)
system.mem_ctrls3.readPktSize::1                    0                       # Read request sizes (log2)
system.mem_ctrls3.readPktSize::2                    0                       # Read request sizes (log2)
system.mem_ctrls3.readPktSize::3                    0                       # Read request sizes (log2)
system.mem_ctrls3.readPktSize::4                    0                       # Read request sizes (log2)
system.mem_ctrls3.readPktSize::5                    0                       # Read request sizes (log2)
system.mem_ctrls3.readPktSize::6                75745                       # Read request sizes (log2)
system.mem_ctrls3.writePktSize::0                   0                       # Write request sizes (log2)
system.mem_ctrls3.writePktSize::1                   0                       # Write request sizes (log2)
system.mem_ctrls3.writePktSize::2                   0                       # Write request sizes (log2)
system.mem_ctrls3.writePktSize::3                   0                       # Write request sizes (log2)
system.mem_ctrls3.writePktSize::4                   0                       # Write request sizes (log2)
system.mem_ctrls3.writePktSize::5                   0                       # Write request sizes (log2)
system.mem_ctrls3.writePktSize::6               60577                       # Write request sizes (log2)
system.mem_ctrls3.rdQLenPdf::0                  40736                       # What read queue length does an incoming req see
system.mem_ctrls3.rdQLenPdf::1                   7376                       # What read queue length does an incoming req see
system.mem_ctrls3.rdQLenPdf::2                   5583                       # What read queue length does an incoming req see
system.mem_ctrls3.rdQLenPdf::3                   4328                       # What read queue length does an incoming req see
system.mem_ctrls3.rdQLenPdf::4                   3058                       # What read queue length does an incoming req see
system.mem_ctrls3.rdQLenPdf::5                   2100                       # What read queue length does an incoming req see
system.mem_ctrls3.rdQLenPdf::6                   1482                       # What read queue length does an incoming req see
system.mem_ctrls3.rdQLenPdf::7                   1052                       # What read queue length does an incoming req see
system.mem_ctrls3.rdQLenPdf::8                    809                       # What read queue length does an incoming req see
system.mem_ctrls3.rdQLenPdf::9                    665                       # What read queue length does an incoming req see
system.mem_ctrls3.rdQLenPdf::10                   566                       # What read queue length does an incoming req see
system.mem_ctrls3.rdQLenPdf::11                   484                       # What read queue length does an incoming req see
system.mem_ctrls3.rdQLenPdf::12                   447                       # What read queue length does an incoming req see
system.mem_ctrls3.rdQLenPdf::13                   417                       # What read queue length does an incoming req see
system.mem_ctrls3.rdQLenPdf::14                   368                       # What read queue length does an incoming req see
system.mem_ctrls3.rdQLenPdf::15                   355                       # What read queue length does an incoming req see
system.mem_ctrls3.rdQLenPdf::16                   346                       # What read queue length does an incoming req see
system.mem_ctrls3.rdQLenPdf::17                   328                       # What read queue length does an incoming req see
system.mem_ctrls3.rdQLenPdf::18                   313                       # What read queue length does an incoming req see
system.mem_ctrls3.rdQLenPdf::19                   316                       # What read queue length does an incoming req see
system.mem_ctrls3.rdQLenPdf::20                   289                       # What read queue length does an incoming req see
system.mem_ctrls3.rdQLenPdf::21                   284                       # What read queue length does an incoming req see
system.mem_ctrls3.rdQLenPdf::22                   240                       # What read queue length does an incoming req see
system.mem_ctrls3.rdQLenPdf::23                   226                       # What read queue length does an incoming req see
system.mem_ctrls3.rdQLenPdf::24                   221                       # What read queue length does an incoming req see
[...]
system.ruby.L2Cache_Controller.MT_IIB.WB_Data_clean::total        27142                      
system.ruby.L2Cache_Controller.MT_IIB.Unblock |         424      2.00%      2.00% |         508      2.40%      4.40% |         528      2.50%      6.90% |         624      2.95%      9.85% |         546      2.58%     12.43% |         552      2.61%     15.04% |         538      2.54%     17.58% |         508      2.40%     19.98% |         691      3.27%     23.25% |         670      3.17%     26.41% |         695      3.28%     29.70% |         756      3.57%     33.27% |         667      3.15%     36.42% |         625      2.95%     39.38% |         714      3.37%     42.75% |         654      3.09%     45.84% |         638      3.02%     48.86% |         591      2.79%     51.65% |         595      2.81%     54.46% |         700      3.31%     57.77% |         887      4.19%     61.96% |         741      3.50%     65.46% |         720      3.40%     68.87% |         914      4.32%     73.19% |         882      4.17%     77.35% |         739      3.49%     80.85% |         761      3.60%     84.44% |         869      4.11%     88.55% |         654      3.09%     91.64% |         642      3.03%     94.67% |         607      2.87%     97.54% |         520      2.46%    100.00%
system.ruby.L2Cache_Controller.MT_IIB.Unblock::total        21160                      
system.ruby.L2Cache_Controller.MT_IB.L1_GETS |           1      4.00%      4.00% |           0      0.00%      4.00% |           0      0.00%      4.00% |           1      4.00%      8.00% |           0      0.00%      8.00% |           0      0.00%      8.00% |           1      4.00%     12.00% |           2      8.00%     20.00% |           0      0.00%     20.00% |           2      8.00%     28.00% |           0      0.00%     28.00% |           0      0.00%     28.00% |           1      4.00%     32.00% |           0      0.00%     32.00% |           0      0.00%     32.00% |           2      8.00%     40.00% |           1      4.00%     44.00% |           3     12.00%     56.00% |           1      4.00%     60.00% |           2      8.00%     68.00% |           0      0.00%     68.00% |           2      8.00%     76.00% |           1      4.00%     80.00% |           2      8.00%     88.00% |           0      0.00%     88.00% |           1      4.00%     92.00% |           0      0.00%     92.00% |           0      0.00%     92.00% |           0      0.00%     92.00% |           0      0.00%     92.00% |           2      8.00%    100.00% |           0      0.00%    100.00%
system.ruby.L2Cache_Controller.MT_IB.L1_GETS::total           25                      
system.ruby.L2Cache_Controller.MT_IB.L1_GETX |           0      0.00%      0.00% |           0      0.00%      0.00% |           0      0.00%      0.00% |           0      0.00%      0.00% |           1      9.09%      9.09% |           0      0.00%      9.09% |           0      0.00%      9.09% |           1      9.09%     18.18% |           0      0.00%     18.18% |           0      0.00%     18.18% |           1      9.09%     27.27% |           1      9.09%     36.36% |           0      0.00%     36.36% |           0      0.00%     36.36% |           1      9.09%     45.45% |           1      9.09%     54.55% |           0      0.00%     54.55% |           1      9.09%     63.64% |           1      9.09%     72.73% |           0      0.00%     72.73% |           0      0.00%     72.73% |           0      0.00%     72.73% |           0      0.00%     72.73% |           0      0.00%     72.73% |           1      9.09%     81.82% |           0      0.00%     81.82% |           1      9.09%     90.91% |           1      9.09%    100.00% |           0      0.00%    100.00% |           0      0.00%    100.00% |           0      0.00%    100.00% |           0      0.00%    100.00%
system.ruby.L2Cache_Controller.MT_IB.L1_GETX::total           11                      
system.ruby.L2Cache_Controller.MT_IB.L1_UPGRADE |           6      1.47%      1.47% |           7      1.72%      3.19% |          10      2.45%      5.64% |           4      0.98%      6.62% |          10      2.45%      9.07% |           7      1.72%     10.78% |          13      3.19%     13.97% |           9      2.21%     16.18% |          17      4.17%     20.34% |           8      1.96%     22.30% |           8      1.96%     24.26% |          22      5.39%     29.66% |          12      2.94%     32.60% |           8      1.96%     34.56% |          13      3.19%     37.75% |          18      4.41%     42.16% |           9      2.21%     44.36% |          16      3.92%     48.28% |          12      2.94%     51.23% |          15      3.68%     54.90% |          15      3.68%     58.58% |          16      3.92%     62.50% |          13      3.19%     65.69% |          20      4.90%     70.59% |          28      6.86%     77.45% |          14      3.43%     80.88% |          10      2.45%     83.33% |          23      5.64%     88.97% |           3      0.74%     89.71% |          18      4.41%     94.12% |          18      4.41%     98.53% |           6      1.47%    100.00%
system.ruby.L2Cache_Controller.MT_IB.L1_UPGRADE::total          408                      
system.ruby.L2Cache_Controller.MT_IB.WB_Data |         388      2.02%      2.02% |         455      2.37%      4.40% |         489      2.55%      6.95% |         566      2.95%      9.90% |         495      2.58%     12.48% |         488      2.55%     15.03% |         494      2.58%     17.61% |         463      2.42%     20.02% |         625      3.26%     23.28% |         621      3.24%     26.52% |         618      3.22%     29.75% |         676      3.53%     33.27% |         603      3.15%     36.42% |         561      2.93%     39.35% |         654      3.41%     42.76% |         601      3.14%     45.89% |         601      3.14%     49.03% |         528      2.75%     51.78% |         535      2.79%     54.58% |         649      3.39%     57.96% |         797      4.16%     62.12% |         668      3.48%     65.60% |         634      3.31%     68.91% |         834      4.35%     73.26% |         793      4.14%     77.40% |         667      3.48%     80.88% |         684      3.57%     84.45% |         792      4.13%     88.58% |         588      3.07%     91.65% |         575      3.00%     94.65% |         556      2.90%     97.55% |         470      2.45%    100.00%
system.ruby.L2Cache_Controller.MT_IB.WB_Data::total        19168                      
system.ruby.L2Cache_Controller.MT_IB.WB_Data_clean |          36      1.81%      1.81% |          53      2.66%      4.47% |          39      1.96%      6.43% |          58      2.91%      9.34% |          51      2.56%     11.90% |          64      3.21%     15.11% |          44      2.21%     17.32% |          45      2.26%     19.58% |          66      3.31%     22.89% |          49      2.46%     25.35% |          77      3.87%     29.22% |          80      4.02%     33.23% |          64      3.21%     36.45% |          64      3.21%     39.66% |          60      3.01%     42.67% |          53      2.66%     45.33% |          37      1.86%     47.19% |          63      3.16%     50.35% |          60      3.01%     53.36% |          51      2.56%     55.92% |          90      4.52%     60.44% |          73      3.66%     64.11% |          86      4.32%     68.42% |          80      4.02%     72.44% |          89      4.47%     76.91% |          72      3.61%     80.52% |          77      3.87%     84.39% |          77      3.87%     88.25% |          66      3.31%     91.57% |          67      3.36%     94.93% |          51      2.56%     97.49% |          50      2.51%    100.00%
system.ruby.L2Cache_Controller.MT_IB.WB_Data_clean::total         1992                      
system.ruby.L2Cache_Controller.MT_SB.L1_GETS |          19      2.61%      2.61% |          25      3.44%      6.05% |          18      2.48%      8.53% |          22      3.03%     11.55% |          18      2.48%     14.03% |          21      2.89%     16.92% |          23      3.16%     20.08% |          21      2.89%     22.97% |          27      3.71%     26.69% |          23      3.16%     29.85% |          20      2.75%     32.60% |          19      2.61%     35.21% |          28      3.85%     39.06% |          33      4.54%     43.60% |          20      2.75%     46.35% |          21      2.89%     49.24% |          20      2.75%     51.99% |          23      3.16%     55.16% |          21      2.89%     58.05% |          19      2.61%     60.66% |          29      3.99%     64.65% |          25      3.44%     68.09% |          24      3.30%     71.39% |          15      2.06%     73.45% |          23      3.16%     76.62% |          16      2.20%     78.82% |          30      4.13%     82.94% |          20      2.75%     85.69% |          21      2.89%     88.58% |          24      3.30%     91.88% |          31      4.26%     96.15% |          28      3.85%    100.00%
system.ruby.L2Cache_Controller.MT_SB.L1_GETS::total          727                      
system.ruby.L2Cache_Controller.MT_SB.L1_GETX |          13      2.01%      2.01% |          16      2.47%      4.48% |          21      3.24%      7.72% |          20      3.09%     10.80% |          26      4.01%     14.81% |          20      3.09%     17.90% |          26      4.01%     21.91% |          20      3.09%     25.00% |          27      4.17%     29.17% |          11      1.70%     30.86% |          20      3.09%     33.95% |          23      3.55%     37.50% |          17      2.62%     40.12% |          22      3.40%     43.52% |          28      4.32%     47.84% |          13      2.01%     49.85% |          22      3.40%     53.24% |          12      1.85%     55.09% |           7      1.08%     56.17% |          15      2.31%     58.49% |          35      5.40%     63.89% |          17      2.62%     66.51% |          31      4.78%     71.30% |          23      3.55%     74.85% |          25      3.86%     78.70% |          26      4.01%     82.72% |          17      2.62%     85.34% |          20      3.09%     88.43% |          20      3.09%     91.51% |          18      2.78%     94.29% |          19      2.93%     97.22% |          18      2.78%    100.00%
system.ruby.L2Cache_Controller.MT_SB.L1_GETX::total          648                      
system.ruby.L2Cache_Controller.MT_SB.L1_UPGRADE |          12      2.75%      2.75% |           9      2.06%      4.82% |          13      2.98%      7.80% |          14      3.21%     11.01% |          16      3.67%     14.68% |          11      2.52%     17.20% |          14      3.21%     20.41% |          15      3.44%     23.85% |          11      2.52%     26.38% |          15      3.44%     29.82% |          17      3.90%     33.72% |           9      2.06%     35.78% |          13      2.98%     38.76% |          14      3.21%     41.97% |          11      2.52%     44.50% |           9      2.06%     46.56% |           9      2.06%     48.62% |          14      3.21%     51.83% |          17      3.90%     55.73% |          13      2.98%     58.72% |          17      3.90%     62.61% |          13      2.98%     65.60% |          19      4.36%     69.95% |          10      2.29%     72.25% |          15      3.44%     75.69% |          20      4.59%     80.28% |          16      3.67%     83.94% |          12      2.75%     86.70% |          16      3.67%     90.37% |          16      3.67%     94.04% |          13      2.98%     97.02% |          13      2.98%    100.00%
system.ruby.L2Cache_Controller.MT_SB.L1_UPGRADE::total          436                      
system.ruby.L2Cache_Controller.MT_SB.L1_PUTX |           0      0.00%      0.00% |           0      0.00%      0.00% |           0      0.00%      0.00% |           0      0.00%      0.00% |           0      0.00%      0.00% |           0      0.00%      0.00% |           0      0.00%      0.00% |           0      0.00%      0.00% |           0      0.00%      0.00% |           0      0.00%      0.00% |           0      0.00%      0.00% |           0      0.00%      0.00% |           0      0.00%      0.00% |           0      0.00%      0.00% |           0      0.00%      0.00% |           0      0.00%      0.00% |           0      0.00%      0.00% |           1     50.00%     50.00% |           1     50.00%    100.00% |           0      0.00%    100.00% |           0      0.00%    100.00% |           0      0.00%    100.00% |           0      0.00%    100.00% |           0      0.00%    100.00% |           0      0.00%    100.00% |           0      0.00%    100.00% |           0      0.00%    100.00% |           0      0.00%    100.00% |           0      0.00%    100.00% |           0      0.00%    100.00% |           0      0.00%    100.00% |           0      0.00%    100.00%
system.ruby.L2Cache_Controller.MT_SB.L1_PUTX::total            2                      
system.ruby.L2Cache_Controller.MT_SB.Unblock |        7171      3.25%      3.25% |        7020      3.18%      6.44% |        6998      3.17%      9.61% |        6887      3.12%     12.74% |        7097      3.22%     15.96% |        6983      3.17%     19.12% |        7016      3.18%     22.31% |        7018      3.18%     25.49% |        7012      3.18%     28.67% |        6751      3.06%     31.73% |        6875      3.12%     34.85% |        6742      3.06%     37.91% |        7035      3.19%     41.10% |        6865      3.11%     44.22% |        6748      3.06%     47.28% |        6823      3.10%     50.37% |        7065      3.20%     53.58% |        6970      3.16%     56.74% |        6824      3.10%     59.83% |        6820      3.09%     62.93% |        6763      3.07%     66.00% |        6804      3.09%     69.08% |        6755      3.06%     72.15% |        6505      2.95%     75.10% |        6788      3.08%     78.18% |        6792      3.08%     81.26% |        6740      3.06%     84.32% |        6565      2.98%     87.29% |        7058      3.20%     90.50% |        6922      3.14%     93.64% |        6995      3.17%     96.81% |        7035      3.19%    100.00%
system.ruby.L2Cache_Controller.MT_SB.Unblock::total       220442                      
system.ruby.SimicsNetworkPortInterface_Controller.MessageSend |      276046     18.07%     18.07% |      764023     50.00%     68.07% |       17661      1.16%     69.22% |       19210      1.26%     70.48% |       17494      1.14%     71.62% |       19437      1.27%     72.90% |       17760      1.16%     74.06% |       19265      1.26%     75.32% |       15169      0.99%     76.31% |       15762      1.03%     77.34% |       15203      0.99%     78.34% |       16028      1.05%     79.39% |       16924      1.11%     80.49% |       16099      1.05%     81.55% |       14647      0.96%     82.51% |       15513      1.02%     83.52% |       15784      1.03%     84.55% |       17148      1.12%     85.68% |       16033      1.05%     86.73% |       15369      1.01%     87.73% |       14434      0.94%     88.68% |       15181      0.99%     89.67% |       14612      0.96%     90.63% |       13864      0.91%     91.53% |       14986      0.98%     92.51% |       15996      1.05%     93.56% |       15048      0.98%     94.55% |       14587      0.95%     95.50% |       16277      1.07%     96.57% |       18065      1.18%     97.75% |       16780      1.10%     98.85% |       17641      1.15%    100.00%
system.ruby.SimicsNetworkPortInterface_Controller.MessageSend::total      1528046                      
system.ruby.SimicsNetworkPortInterface_Controller.MessageRecv |      276046     18.07%     18.07% |      764023     50.00%     68.07% |       17661      1.16%     69.22% |       19210      1.26%     70.48% |       17494      1.14%     71.62% |       19437      1.27%     72.90% |       17760      1.16%     74.06% |       19265      1.26%     75.32% |       15169      0.99%     76.31% |       15762      1.03%     77.34% |       15203      0.99%     78.34% |       16028      1.05%     79.39% |       16924      1.11%     80.49% |       16099      1.05%     81.55% |       14647      0.96%     82.51% |       15513      1.02%     83.52% |       15784      1.03%     84.55% |       17148      1.12%     85.68% |       16033      1.05%     86.73% |       15369      1.01%     87.73% |       14434      0.94%     88.68% |       15181      0.99%     89.67% |       14612      0.96%     90.63% |       13864      0.91%     91.53% |       14986      0.98%     92.51% |       15996      1.05%     93.56% |       15048      0.98%     94.55% |       14587      0.95%     95.50% |       16277      1.07%     96.57% |       18065      1.18%     97.75% |       16780      1.10%     98.85% |       17641      1.15%    100.00%
system.ruby.SimicsNetworkPortInterface_Controller.MessageRecv::total      1528046                      
system.ruby.SimicsNetworkPortInterface_Controller.A.MessageSend |      276046     18.07%     18.07% |      764023     50.00%     68.07% |       17661      1.16%     69.22% |       19210      1.26%     70.48% |       17494      1.14%     71.62% |       19437      1.27%     72.90% |       17760      1.16%     74.06% |       19265      1.26%     75.32% |       15169      0.99%     76.31% |       15762      1.03%     77.34% |       15203      0.99%     78.34% |       16028      1.05%     79.39% |       16924      1.11%     80.49% |       16099      1.05%     81.55% |       14647      0.96%     82.51% |       15513      1.02%     83.52% |       15784      1.03%     84.55% |       17148      1.12%     85.68% |       16033      1.05%     86.73% |       15369      1.01%     87.73% |       14434      0.94%     88.68% |       15181      0.99%     89.67% |       14612      0.96%     90.63% |       13864      0.91%     91.53% |       14986      0.98%     92.51% |       15996      1.05%     93.56% |       15048      0.98%     94.55% |       14587      0.95%     95.50% |       16277      1.07%     96.57% |       18065      1.18%     97.75% |       16780      1.10%     98.85% |       17641      1.15%    100.00%
system.ruby.SimicsNetworkPortInterface_Controller.A.MessageSend::total      1528046                      
system.ruby.SimicsNetworkPortInterface_Controller.A.MessageRecv |      276046     18.07%     18.07% |      764023     50.00%     68.07% |       17661      1.16%     69.22% |       19210      1.26%     70.48% |       17494      1.14%     71.62% |       19437      1.27%     72.90% |       17760      1.16%     74.06% |       19265      1.26%     75.32% |       15169      0.99%     76.31% |       15762      1.03%     77.34% |       15203      0.99%     78.34% |       16028      1.05%     79.39% |       16924      1.11%     80.49% |       16099      1.05%     81.55% |       14647      0.96%     82.51% |       15513      1.02%     83.52% |       15784      1.03%     84.55% |       17148      1.12%     85.68% |       16033      1.05%     86.73% |       15369      1.01%     87.73% |       14434      0.94%     88.68% |       15181      0.99%     89.67% |       14612      0.96%     90.63% |       13864      0.91%     91.53% |       14986      0.98%     92.51% |       15996      1.05%     93.56% |       15048      0.98%     94.55% |       14587      0.95%     95.50% |       16277      1.07%     96.57% |       18065      1.18%     97.75% |       16780      1.10%     98.85% |       17641      1.15%    100.00%
system.ruby.SimicsNetworkPortInterface_Controller.A.MessageRecv::total      1528046                      
system.switch_cpus.kern.inst.arm                    0                       # number of arm instructions executed
system.switch_cpus.kern.inst.quiesce                0                       # number of quiesce instructions executed

---------- End Simulation Statistics   ----------
