
---------- Begin Simulation Statistics ----------
sim_seconds                                  0.038830                       # Number of seconds simulated
sim_ticks                                 38829998500                       # Number of ticks simulated
final_tick                               5214998077000                       # Number of ticks from beginning of simulation (restored from checkpoints and never reset)
sim_freq                                 1000000000000                       # Frequency of simulated ticks
host_inst_rate                                  50118                       # Simulator instruction rate (inst/s)
host_op_rate                                    88244                       # Simulator op (including micro ops) rate (op/s)
host_tick_rate                              107063822                       # Simulator tick rate (ticks/s)
host_mem_usage                                3224036                       # Number of bytes of host memory used
host_seconds                                   362.68                       # Real time elapsed on the host
sim_insts                                    18176716                       # Number of instructions simulated
sim_ops                                      32004364                       # Number of ops (including micro ops) simulated
system.voltage_domain.voltage                       1                       # Voltage in Volts
system.clk_domain.clock                           500                       # Clock period in ticks
system.mem_ctrls0.bytes_read::ruby.dir_cntrl0      4688768                       # Number of bytes read from this memory
system.mem_ctrls0.bytes_read::total           4688768                       # Number of bytes read from this memory
system.mem_ctrls0.bytes_written::ruby.dir_cntrl0      2862144                       # Number of bytes written to this memory
system.mem_ctrls0.bytes_written::total        2862144                       # Number of bytes written to this memory
system.mem_ctrls0.num_reads::ruby.dir_cntrl0        73262                       # Number of read requests responded to by this memory
system.mem_ctrls0.num_reads::total              73262                       # Number of read requests responded to by this memory
system.mem_ctrls0.num_writes::ruby.dir_cntrl0        44721                       # Number of write requests responded to by this memory
system.mem_ctrls0.num_writes::total             44721                       # Number of write requests responded to by this memory
system.mem_ctrls0.bw_read::ruby.dir_cntrl0    120751176                       # Total read bandwidth from this memory (bytes/s)
system.mem_ctrls0.bw_read::total            120751176                       # Total read bandwidth from this memory (bytes/s)
system.mem_ctrls0.bw_write::ruby.dir_cntrl0     73709609                       # Write bandwidth from this memory (bytes/s)
system.mem_ctrls0.bw_write::total            73709609                       # Write bandwidth from this memory (bytes/s)
system.mem_ctrls0.bw_total::ruby.dir_cntrl0    194460785                       # Total bandwidth to/from this memory (bytes/s)
system.mem_ctrls0.bw_total::total           194460785                       # Total bandwidth to/from this memory (bytes/s)
system.mem_ctrls0.readReqs                      73262                       # Number of read requests accepted
system.mem_ctrls0.writeReqs                     44721                       # Number of write requests accepted
system.mem_ctrls0.readBursts                    73262                       # Number of DRAM read bursts, including those serviced by the write queue
system.mem_ctrls0.writeBursts                   44721                       # Number of DRAM write bursts, including those merged in the write queue
system.mem_ctrls0.bytesReadDRAM               4687936                       # Total number of bytes read from DRAM
system.mem_ctrls0.bytesReadWrQ                    832                       # Total number of bytes read from write queue
system.mem_ctrls0.bytesWritten                2861888                       # Total number of bytes written to DRAM
system.mem_ctrls0.bytesReadSys                4688768                       # Total read bytes from the system interface side
system.mem_ctrls0.bytesWrittenSys             2862144                       # Total written bytes from the system interface side
system.mem_ctrls0.servicedByWrQ                    13                       # Number of DRAM read bursts serviced by the write queue
system.mem_ctrls0.mergedWrBursts                    0                       # Number of DRAM write bursts merged with an existing one
system.mem_ctrls0.neitherReadNorWriteReqs            0                       # Number of requests that are neither read nor write
system.mem_ctrls0.perBankRdBursts::0             4426                       # Per bank write bursts
system.mem_ctrls0.perBankRdBursts::1             4891                       # Per bank write bursts
system.mem_ctrls0.perBankRdBursts::2             4541                       # Per bank write bursts
system.mem_ctrls0.perBankRdBursts::3             4886                       # Per bank write bursts
system.mem_ctrls0.perBankRdBursts::4             4634                       # Per bank write bursts
system.mem_ctrls0.perBankRdBursts::5             4726                       # Per bank write bursts
system.mem_ctrls0.perBankRdBursts::6             4552                       # Per bank write bursts
system.mem_ctrls0.perBankRdBursts::7             4523                       # Per bank write bursts
system.mem_ctrls0.perBankRdBursts::8             4505                       # Per bank write bursts
system.mem_ctrls0.perBankRdBursts::9             4793                       # Per bank write bursts
system.mem_ctrls0.perBankRdBursts::10            4517                       # Per bank write bursts
system.mem_ctrls0.perBankRdBursts::11            4732                       # Per bank write bursts
system.mem_ctrls0.perBankRdBursts::12            4351                       # Per bank write bursts
system.mem_ctrls0.perBankRdBursts::13            4197                       # Per bank write bursts
system.mem_ctrls0.perBankRdBursts::14            4469                       # Per bank write bursts
system.mem_ctrls0.perBankRdBursts::15            4506                       # Per bank write bursts
system.mem_ctrls0.perBankWrBursts::0             2818                       # Per bank write bursts
system.mem_ctrls0.perBankWrBursts::1             2810                       # Per bank write bursts
system.mem_ctrls0.perBankWrBursts::2             2793                       # Per bank write bursts
system.mem_ctrls0.perBankWrBursts::3             2882                       # Per bank write bursts
system.mem_ctrls0.perBankWrBursts::4             2801                       # Per bank write bursts
system.mem_ctrls0.perBankWrBursts::5             2938                       # Per bank write bursts
system.mem_ctrls0.perBankWrBursts::6             2769                       # Per bank write bursts
system.mem_ctrls0.perBankWrBursts::7             2845                       # Per bank write bursts
system.mem_ctrls0.perBankWrBursts::8             2739                       # Per bank write bursts
system.mem_ctrls0.perBankWrBursts::9             2919                       # Per bank write bursts
system.mem_ctrls0.perBankWrBursts::10            2766                       # Per bank write bursts
system.mem_ctrls0.perBankWrBursts::11            2698                       # Per bank write bursts
system.mem_ctrls0.perBankWrBursts::12            2633                       # Per bank write bursts
system.mem_ctrls0.perBankWrBursts::13            2669                       # Per bank write bursts
system.mem_ctrls0.perBankWrBursts::14            2876                       # Per bank write bursts
system.mem_ctrls0.perBankWrBursts::15            2761                       # Per bank write bursts
system.mem_ctrls0.numRdRetry                      328                       # Number of times read queue was full causing retry
system.mem_ctrls0.numWrRetry                     2299                       # Number of times write queue was full causing retry
system.mem_ctrls0.totGap                  38829486000                       # Total gap between requests
system.mem_ctrls0.readPktSize::0                    0                       # Read request sizes (log2)
system.mem_ctrls0.readPktSize::1                    0                       # Read request sizes (log2)
system.mem_ctrls0.readPktSize::2                    0                       # Read request sizes (log2)
system.mem_ctrls0.readPktSize::3                    0                       # Read request sizes (log2)
system.mem_ctrls0.readPktSize::4                    0                       # Read request sizes (log2)
system.mem_ctrls0.readPktSize::5                    0                       # Read request sizes (log2)
system.mem_ctrls0.readPktSize::6                73262                       # Read request sizes (log2)
system.mem_ctrls0.writePktSize::0                   0                       # Write request sizes (log2)
system.mem_ctrls0.writePktSize::1                   0                       # Write request sizes (log2)
system.mem_ctrls0.writePktSize::2                   0                       # Write request sizes (log2)
system.mem_ctrls0.writePktSize::3                   0                       # Write request sizes (log2)
system.mem_ctrls0.writePktSize::4                   0                       # Write request sizes (log2)
system.mem_ctrls0.writePktSize::5                   0                       # Write request sizes (log2)
system.mem_ctrls0.writePktSize::6               44721                       # Write request sizes (log2)
system.mem_ctrls0.rdQLenPdf::0                  45699                       # What read queue length does an incoming req see
system.mem_ctrls0.rdQLenPdf::1                   4279                       # What read queue length does an incoming req see
system.mem_ctrls0.rdQLenPdf::2                   3564                       # What read queue length does an incoming req see
system.mem_ctrls0.rdQLenPdf::3                   2883                       # What read queue length does an incoming req see
system.mem_ctrls0.rdQLenPdf::4                   2422                       # What read queue length does an incoming req see
system.mem_ctrls0.rdQLenPdf::5                   1868                       # What read queue length does an incoming req see
system.mem_ctrls0.rdQLenPdf::6                   1558                       # What read queue length does an incoming req see
system.mem_ctrls0.rdQLenPdf::7                   1349                       # What read queue length does an incoming req see
system.mem_ctrls0.rdQLenPdf::8                   1161                       # What read queue length does an incoming req see
system.mem_ctrls0.rdQLenPdf::9                    991                       # What read queue length does an incoming req see
system.mem_ctrls0.rdQLenPdf::10                   884                       # What read queue length does an incoming req see
system.mem_ctrls0.rdQLenPdf::11                   786                       # What read queue length does an incoming req see
system.mem_ctrls0.rdQLenPdf::12                   654                       # What read queue length does an incoming req see
system.mem_ctrls0.rdQLenPdf::13                   580                       # What read queue length does an incoming req see
system.mem_ctrls0.rdQLenPdf::14                   524                       # What read queue length does an incoming req see
system.mem_ctrls0.rdQLenPdf::15                   443                       # What read queue length does an incoming req see
system.mem_ctrls0.rdQLenPdf::16                   427                       # What read queue length does an incoming req see
system.mem_ctrls0.rdQLenPdf::17                   369                       # What read queue length does an incoming req see
system.mem_ctrls0.rdQLenPdf::18                   313                       # What read queue length does an incoming req see
system.mem_ctrls0.rdQLenPdf::19                   282                       # What read queue length does an incoming req see
system.mem_ctrls0.rdQLenPdf::20                   264                       # What read queue length does an incoming req see
system.mem_ctrls0.rdQLenPdf::21                   220                       # What read queue length does an incoming req see
system.mem_ctrls0.rdQLenPdf::22                   200                       # What read queue length does an incoming req see
system.mem_ctrls0.rdQLenPdf::23                   175                       # What read queue length does an incoming req see
system.mem_ctrls0.rdQLenPdf::24                   160                       # What read queue length does an incoming req see
system.mem_ctrls0.rdQLenPdf::25                   165                       # What read queue length does an incoming req see
system.mem_ctrls0.rdQLenPdf::26                   142                       # What read queue length does an incoming req see
system.mem_ctrls0.rdQLenPdf::27                   126                       # What read queue length does an incoming req see
system.mem_ctrls0.rdQLenPdf::28                   130                       # What read queue length does an incoming req see
system.mem_ctrls0.rdQLenPdf::29                   112                       # What read queue length does an incoming req see
system.mem_ctrls0.rdQLenPdf::30                    95                       # What read queue length does an incoming req see
system.mem_ctrls0.rdQLenPdf::31                   424                       # What read queue length does an incoming req see
system.mem_ctrls0.wrQLenPdf::0                   7710                       # What write queue length does an incoming req see
system.mem_ctrls0.wrQLenPdf::1                   7955                       # What write queue length does an incoming req see
system.mem_ctrls0.wrQLenPdf::2                   8112                       # What write queue length does an incoming req see
system.mem_ctrls0.wrQLenPdf::3                   8245                       # What write queue length does an incoming req see
system.mem_ctrls0.wrQLenPdf::4                   8367                       # What write queue length does an incoming req see
system.mem_ctrls0.wrQLenPdf::5                    825                       # What write queue length does an incoming req see
system.mem_ctrls0.wrQLenPdf::6                    637                       # What write queue length does an incoming req see
system.mem_ctrls0.wrQLenPdf::7                   2870                       # What write queue length does an incoming req see
system.mem_ctrls0.bytesPerActivate::samples        32405                       # Bytes accessed per row activation
system.mem_ctrls0.bytesPerActivate::mean   232.924055                       # Bytes accessed per row activation
system.mem_ctrls0.bytesPerActivate::gmean   156.951465                       # Bytes accessed per row activation
system.mem_ctrls0.bytesPerActivate::stdev   234.674590                       # Bytes accessed per row activation
system.mem_ctrls0.bytesPerActivate::0-127        12688     39.15%     39.15% # Bytes accessed per row activation
system.mem_ctrls0.bytesPerActivate::128-255         7198     22.21%     61.37% # Bytes accessed per row activation
system.mem_ctrls0.bytesPerActivate::256-383         8048     24.84%     86.20% # Bytes accessed per row activation
system.mem_ctrls0.bytesPerActivate::384-511         1058      3.26%     89.47% # Bytes accessed per row activation
system.mem_ctrls0.bytesPerActivate::512-639          767      2.37%     91.83% # Bytes accessed per row activation
system.mem_ctrls0.bytesPerActivate::640-767          554      1.71%     93.54% # Bytes accessed per row activation
system.mem_ctrls0.bytesPerActivate::768-895          442      1.36%     94.91% # Bytes accessed per row activation
system.mem_ctrls0.bytesPerActivate::896-1023          448      1.38%     96.29% # Bytes accessed per row activation
system.mem_ctrls0.bytesPerActivate::1024-1151         1202      3.71%    100.00% # Bytes accessed per row activation
system.mem_ctrls0.bytesPerActivate::total        32405                       # Bytes accessed per row activation
system.mem_ctrls0.rdPerTurnAround::samples         7952                       # Reads before turning the bus around for writes
system.mem_ctrls0.rdPerTurnAround::mean      9.207369                       # Reads before turning the bus around for writes
system.mem_ctrls0.rdPerTurnAround::stdev    46.063027                       # Reads before turning the bus around for writes
system.mem_ctrls0.rdPerTurnAround::0-127         7945     99.91%     99.91% # Reads before turning the bus around for writes
system.mem_ctrls0.rdPerTurnAround::128-255            6      0.08%     99.99% # Reads before turning the bus around for writes
system.mem_ctrls0.rdPerTurnAround::3968-4095            1      0.01%    100.00% # Reads before turning the bus around for writes
system.mem_ctrls0.rdPerTurnAround::total         7952                       # Reads before turning the bus around for writes
system.mem_ctrls0.wrPerTurnAround::samples         7952                       # Writes before turning the bus around for reads
system.mem_ctrls0.wrPerTurnAround::mean      5.623365                       # Writes before turning the bus around for reads
system.mem_ctrls0.wrPerTurnAround::gmean     5.391891                       # Writes before turning the bus around for reads
system.mem_ctrls0.wrPerTurnAround::stdev     2.227276                       # Writes before turning the bus around for reads
system.mem_ctrls0.wrPerTurnAround::4-7           7433     93.47%     93.47% # Writes before turning the bus around for reads
system.mem_ctrls0.wrPerTurnAround::8-11           150      1.89%     95.36% # Writes before turning the bus around for reads
system.mem_ctrls0.wrPerTurnAround::12-15          107      1.35%     96.71% # Writes before turning the bus around for reads
system.mem_ctrls0.wrPerTurnAround::16-19          262      3.29%    100.00% # Writes before turning the bus around for reads
system.mem_ctrls0.wrPerTurnAround::total         7952                       # Writes before turning the bus around for reads
system.mem_ctrls0.totQLat                  3363862384                       # Total ticks spent queuing
system.mem_ctrls0.totMemAccLat             4737281134                       # Total ticks spent from burst creation until serviced by the DRAM
system.mem_ctrls0.totBusLat                 366245000                       # Total ticks spent in databus transfers
system.mem_ctrls0.avgQLat                    45923.66                       # Average queueing delay per DRAM burst
system.mem_ctrls0.avgBusLat                   5000.00                       # Average bus latency per DRAM burst
system.mem_ctrls0.avgMemAccLat               64673.66                       # Average memory access latency per DRAM burst
system.mem_ctrls0.avgRdBW                      120.73                       # Average DRAM read bandwidth in MiByte/s
system.mem_ctrls0.avgWrBW                       73.70                       # Average achieved write bandwidth in MiByte/s
system.mem_ctrls0.avgRdBWSys                   120.75                       # Average system read bandwidth in MiByte/s
system.mem_ctrls0.avgWrBWSys                    73.71                       # Average system write bandwidth in MiByte/s
system.mem_ctrls0.peakBW                     12800.00                       # Theoretical peak bandwidth in MiByte/s
system.mem_ctrls0.busUtil                        1.52                       # Data bus utilization in percentage
system.mem_ctrls0.busUtilRead                    0.94                       # Data bus utilization in percentage for reads
system.mem_ctrls0.busUtilWrite                   0.58                       # Data bus utilization in percentage for writes
system.mem_ctrls0.avgRdQLen                      1.12                       # Average read queue length when enqueuing
system.mem_ctrls0.avgWrQLen                      2.87                       # Average write queue length when enqueuing
system.mem_ctrls0.readRowHits                   56172                       # Number of row buffer hits during reads
system.mem_ctrls0.writeRowHits                  29379                       # Number of row buffer hits during writes
system.mem_ctrls0.readRowHitRate                76.69                       # Row buffer hit rate for reads
system.mem_ctrls0.writeRowHitRate               65.69                       # Row buffer hit rate for writes
system.mem_ctrls0.avgGap                    329110.85                       # Average gap between requests
system.mem_ctrls0.pageHitRate                   72.52                       # Row buffer hit rate, read and write combined
system.mem_ctrls0.memoryStateTime::IDLE   10429338000                       # Time in different power states
system.mem_ctrls0.memoryStateTime::REF     1296360000                       # Time in different power states
system.mem_ctrls0.memoryStateTime::PRE_PDN            0                       # Time in different power states
system.mem_ctrls0.memoryStateTime::ACT    27096818250                       # Time in different power states
system.mem_ctrls0.memoryStateTime::ACT_PDN            0                       # Time in different power states
system.mem_ctrls0.actEnergy::0              126743400                       # Energy for activate commands per rank (pJ)
system.mem_ctrls0.actEnergy::1              118049400                       # Energy for activate commands per rank (pJ)
system.mem_ctrls0.preEnergy::0               69155625                       # Energy for precharge commands per rank (pJ)
system.mem_ctrls0.preEnergy::1               64411875                       # Energy for precharge commands per rank (pJ)
system.mem_ctrls0.readEnergy::0             288943200                       # Energy for read commands per rank (pJ)
system.mem_ctrls0.readEnergy::1             281229000                       # Energy for read commands per rank (pJ)
system.mem_ctrls0.writeEnergy::0            146681280                       # Energy for write commands per rank (pJ)
system.mem_ctrls0.writeEnergy::1            142948800                       # Energy for write commands per rank (pJ)
system.mem_ctrls0.refreshEnergy::0         2535680160                       # Energy for refresh commands per rank (pJ)
system.mem_ctrls0.refreshEnergy::1         2535680160                       # Energy for refresh commands per rank (pJ)
system.mem_ctrls0.actBackEnergy::0        14163645285                       # Energy for active background per rank (pJ)
system.mem_ctrls0.actBackEnergy::1        13796216730                       # Energy for active background per rank (pJ)
system.mem_ctrls0.preBackEnergy::0        10869251250                       # Energy for precharge background per rank (pJ)
system.mem_ctrls0.preBackEnergy::1        11191557000                       # Energy for precharge background per rank (pJ)
system.mem_ctrls0.totalEnergy::0          28200100200                       # Total energy per rank (pJ)
system.mem_ctrls0.totalEnergy::1          28130092965                       # Total energy per rank (pJ)
system.mem_ctrls0.averagePower::0          726.385431                       # Core power per rank (mW)
system.mem_ctrls0.averagePower::1          724.582166                       # Core power per rank (mW)
system.mem_ctrls1.bytes_read::ruby.dir_cntrl1      4564288                       # Number of bytes read from this memory
system.mem_ctrls1.bytes_read::total           4564288                       # Number of bytes read from this memory
system.mem_ctrls1.bytes_written::ruby.dir_cntrl1      2746624                       # Number of bytes written to this memory
system.mem_ctrls1.bytes_written::total        2746624                       # Number of bytes written to this memory
system.mem_ctrls1.num_reads::ruby.dir_cntrl1        71317                       # Number of read requests responded to by this memory
system.mem_ctrls1.num_reads::total              71317                       # Number of read requests responded to by this memory
system.mem_ctrls1.num_writes::ruby.dir_cntrl1        42916                       # Number of write requests responded to by this memory
system.mem_ctrls1.num_writes::total             42916                       # Number of write requests responded to by this memory
system.mem_ctrls1.bw_read::ruby.dir_cntrl1    117545408                       # Total read bandwidth from this memory (bytes/s)
system.mem_ctrls1.bw_read::total            117545408                       # Total read bandwidth from this memory (bytes/s)
system.mem_ctrls1.bw_write::ruby.dir_cntrl1     70734589                       # Write bandwidth from this memory (bytes/s)
system.mem_ctrls1.bw_write::total            70734589                       # Write bandwidth from this memory (bytes/s)
system.mem_ctrls1.bw_total::ruby.dir_cntrl1    188279997                       # Total bandwidth to/from this memory (bytes/s)
system.mem_ctrls1.bw_total::total           188279997                       # Total bandwidth to/from this memory (bytes/s)
system.mem_ctrls1.readReqs                      71317                       # Number of read requests accepted
system.mem_ctrls1.writeReqs                     42916                       # Number of write requests accepted
system.mem_ctrls1.readBursts                    71317                       # Number of DRAM read bursts, including those serviced by the write queue
system.mem_ctrls1.writeBursts                   42916                       # Number of DRAM write bursts, including those merged in the write queue
system.mem_ctrls1.bytesReadDRAM               4563264                       # Total number of bytes read from DRAM
system.mem_ctrls1.bytesReadWrQ                   1024                       # Total number of bytes read from write queue
system.mem_ctrls1.bytesWritten                2746496                       # Total number of bytes written to DRAM
system.mem_ctrls1.bytesReadSys                4564288                       # Total read bytes from the system interface side
system.mem_ctrls1.bytesWrittenSys             2746624                       # Total written bytes from the system interface side
system.mem_ctrls1.servicedByWrQ                    16                       # Number of DRAM read bursts serviced by the write queue
system.mem_ctrls1.mergedWrBursts                    0                       # Number of DRAM write bursts merged with an existing one
system.mem_ctrls1.neitherReadNorWriteReqs            0                       # Number of requests that are neither read nor write
system.mem_ctrls1.perBankRdBursts::0             4309                       # Per bank write bursts
system.mem_ctrls1.perBankRdBursts::1             4752                       # Per bank write bursts
system.mem_ctrls1.perBankRdBursts::2             4420                       # Per bank write bursts
system.mem_ctrls1.perBankRdBursts::3             4767                       # Per bank write bursts
system.mem_ctrls1.perBankRdBursts::4             4524                       # Per bank write bursts
system.mem_ctrls1.perBankRdBursts::5             4631                       # Per bank write bursts
system.mem_ctrls1.perBankRdBursts::6             4426                       # Per bank write bursts
system.mem_ctrls1.perBankRdBursts::7             4426                       # Per bank write bursts
system.mem_ctrls1.perBankRdBursts::8             4376                       # Per bank write bursts
system.mem_ctrls1.perBankRdBursts::9             4671                       # Per bank write bursts
system.mem_ctrls1.perBankRdBursts::10            4400                       # Per bank write bursts
system.mem_ctrls1.perBankRdBursts::11            4614                       # Per bank write bursts
system.mem_ctrls1.perBankRdBursts::12            4228                       # Per bank write bursts
system.mem_ctrls1.perBankRdBursts::13            4084                       # Per bank write bursts
system.mem_ctrls1.perBankRdBursts::14            4274                       # Per bank write bursts
system.mem_ctrls1.perBankRdBursts::15            4399                       # Per bank write bursts
system.mem_ctrls1.perBankWrBursts::0             2710                       # Per bank write bursts
system.mem_ctrls1.perBankWrBursts::1             2714                       # Per bank write bursts
system.mem_ctrls1.perBankWrBursts::2             2691                       # Per bank write bursts
system.mem_ctrls1.perBankWrBursts::3             2773                       # Per bank write bursts
system.mem_ctrls1.perBankWrBursts::4             2699                       # Per bank write bursts
system.mem_ctrls1.perBankWrBursts::5             2831                       # Per bank write bursts
system.mem_ctrls1.perBankWrBursts::6             2643                       # Per bank write bursts
system.mem_ctrls1.perBankWrBursts::7             2732                       # Per bank write bursts
system.mem_ctrls1.perBankWrBursts::8             2629                       # Per bank write bursts
system.mem_ctrls1.perBankWrBursts::9             2805                       # Per bank write bursts
system.mem_ctrls1.perBankWrBursts::10            2661                       # Per bank write bursts
system.mem_ctrls1.perBankWrBursts::11            2586                       # Per bank write bursts
system.mem_ctrls1.perBankWrBursts::12            2527                       # Per bank write bursts
system.mem_ctrls1.perBankWrBursts::13            2553                       # Per bank write bursts
system.mem_ctrls1.perBankWrBursts::14            2708                       # Per bank write bursts
system.mem_ctrls1.perBankWrBursts::15            2652                       # Per bank write bursts
system.mem_ctrls1.numRdRetry                      341                       # Number of times read queue was full causing retry
system.mem_ctrls1.numWrRetry                     2059                       # Number of times write queue was full causing retry
system.mem_ctrls1.totGap                  38829234000                       # Total gap between requests
system.mem_ctrls1.readPktSize::0                    0                       # Read request sizes (log2)
system.mem_ctrls1.readPktSize::1                    0                       # Read request sizes (log2)
system.mem_ctrls1.readPktSize::2                    0                       # Read request sizes (log2)
system.mem_ctrls1.readPktSize::3                    0                       # Read request sizes (log2)
system.mem_ctrls1.readPktSize::4                    0                       # Read request sizes (log2)
system.mem_ctrls1.readPktSize::5                    0                       # Read request sizes (log2)
system.mem_ctrls1.readPktSize::6                71317                       # Read request sizes (log2)
system.mem_ctrls1.writePktSize::0                   0                       # Write request sizes (log2)
system.mem_ctrls1.writePktSize::1                   0                       # Write request sizes (log2)
system.mem_ctrls1.writePktSize::2                   0                       # Write request sizes (log2)
system.mem_ctrls1.writePktSize::3                   0                       # Write request sizes (log2)
system.mem_ctrls1.writePktSize::4                   0                       # Write request sizes (log2)
system.mem_ctrls1.writePktSize::5                   0                       # Write request sizes (log2)
system.mem_ctrls1.writePktSize::6               42916                       # Write request sizes (log2)
system.mem_ctrls1.rdQLenPdf::0                  44879                       # What read queue length does an incoming req see
system.mem_ctrls1.rdQLenPdf::1                   3764                       # What read queue length does an incoming req see
system.mem_ctrls1.rdQLenPdf::2                   3308                       # What read queue length does an incoming req see
system.mem_ctrls1.rdQLenPdf::3                   2871                       # What read queue length does an incoming req see
system.mem_ctrls1.rdQLenPdf::4                   2505                       # What read queue length does an incoming req see
system.mem_ctrls1.rdQLenPdf::5                   2005                       # What read queue length does an incoming req see
system.mem_ctrls1.rdQLenPdf::6                   1639                       # What read queue length does an incoming req see
system.mem_ctrls1.rdQLenPdf::7                   1340                       # What read queue length does an incoming req see
system.mem_ctrls1.rdQLenPdf::8                   1127                       # What read queue length does an incoming req see
system.mem_ctrls1.rdQLenPdf::9                    926                       # What read queue length does an incoming req see
system.mem_ctrls1.rdQLenPdf::10                   803                       # What read queue length does an incoming req see
system.mem_ctrls1.rdQLenPdf::11                   694                       # What read queue length does an incoming req see
system.mem_ctrls1.rdQLenPdf::12                   617                       # What read queue length does an incoming req see
system.mem_ctrls1.rdQLenPdf::13                   535                       # What read queue length does an incoming req see
system.mem_ctrls1.rdQLenPdf::14                   439                       # What read queue length does an incoming req see
system.mem_ctrls1.rdQLenPdf::15                   413                       # What read queue length does an incoming req see
system.mem_ctrls1.rdQLenPdf::16                   371                       # What read queue length does an incoming req see
system.mem_ctrls1.rdQLenPdf::17                   317                       # What read queue length does an incoming req see
system.mem_ctrls1.rdQLenPdf::18                   271                       # What read queue length does an incoming req see
system.mem_ctrls1.rdQLenPdf::19                   245                       # What read queue length does an incoming req see
system.mem_ctrls1.rdQLenPdf::20                   218                       # What read queue length does an incoming req see
system.mem_ctrls1.rdQLenPdf::21                   211                       # What read queue length does an incoming req see
system.mem_ctrls1.rdQLenPdf::22                   190                       # What read queue length does an incoming req see
system.mem_ctrls1.rdQLenPdf::23                   178                       # What read queue length does an incoming req see
system.mem_ctrls1.rdQLenPdf::24                   150                       # What read queue length does an incoming req see
system.mem_ctrls1.rdQLenPdf::25                   150                       # What read queue length does an incoming req see
system.mem_ctrls1.rdQLenPdf::26                   159                       # What read queue length does an incoming req see
system.mem_ctrls1.rdQLenPdf::27                   147                       # What read queue length does an incoming req see
system.mem_ctrls1.rdQLenPdf::28                   135                       # What read queue length does an incoming req see
system.mem_ctrls1.rdQLenPdf::29                   137                       # What read queue length does an incoming req see
system.mem_ctrls1.rdQLenPdf::30                   111                       # What read queue length does an incoming req see
system.mem_ctrls1.rdQLenPdf::31                   446                       # What read queue length does an incoming req see
system.mem_ctrls1.wrQLenPdf::0                   7411                       # What write queue length does an incoming req see
system.mem_ctrls1.wrQLenPdf::1                   7631                       # What write queue length does an incoming req see
system.mem_ctrls1.wrQLenPdf::2                   7787                       # What write queue length does an incoming req see
system.mem_ctrls1.wrQLenPdf::3                   7927                       # What write queue length does an incoming req see
system.mem_ctrls1.wrQLenPdf::4                   8032                       # What write queue length does an incoming req see
system.mem_ctrls1.wrQLenPdf::5                    795                       # What write queue length does an incoming req see
system.mem_ctrls1.wrQLenPdf::6                    692                       # What write queue length does an incoming req see
system.mem_ctrls1.wrQLenPdf::7                   2641                       # What write queue length does an incoming req see
system.mem_ctrls1.bytesPerActivate::samples        28539                       # Bytes accessed per row activation
system.mem_ctrls1.bytesPerActivate::mean   256.056064                       # Bytes accessed per row activation
system.mem_ctrls1.bytesPerActivate::gmean   176.075442                       # Bytes accessed per row activation
system.mem_ctrls1.bytesPerActivate::stdev   241.834142                       # Bytes accessed per row activation
system.mem_ctrls1.bytesPerActivate::0-127         9258     32.44%     32.44% # Bytes accessed per row activation
system.mem_ctrls1.bytesPerActivate::128-255         6640     23.27%     55.71% # Bytes accessed per row activation
system.mem_ctrls1.bytesPerActivate::256-383         8020     28.10%     83.81% # Bytes accessed per row activation
system.mem_ctrls1.bytesPerActivate::384-511         1151      4.03%     87.84% # Bytes accessed per row activation
system.mem_ctrls1.bytesPerActivate::512-639          816      2.86%     90.70% # Bytes accessed per row activation
system.mem_ctrls1.bytesPerActivate::640-767          541      1.90%     92.60% # Bytes accessed per row activation
system.mem_ctrls1.bytesPerActivate::768-895          487      1.71%     94.30% # Bytes accessed per row activation
system.mem_ctrls1.bytesPerActivate::896-1023          468      1.64%     95.94% # Bytes accessed per row activation
system.mem_ctrls1.bytesPerActivate::1024-1151         1158      4.06%    100.00% # Bytes accessed per row activation
system.mem_ctrls1.bytesPerActivate::total        28539                       # Bytes accessed per row activation
system.mem_ctrls1.rdPerTurnAround::samples         7639                       # Reads before turning the bus around for writes
system.mem_ctrls1.rdPerTurnAround::mean      9.330148                       # Reads before turning the bus around for writes
system.mem_ctrls1.rdPerTurnAround::stdev    37.410613                       # Reads before turning the bus around for writes
system.mem_ctrls1.rdPerTurnAround::0-127         7631     99.90%     99.90% # Reads before turning the bus around for writes
system.mem_ctrls1.rdPerTurnAround::128-255            6      0.08%     99.97% # Reads before turning the bus around for writes
system.mem_ctrls1.rdPerTurnAround::1152-1279            1      0.01%     99.99% # Reads before turning the bus around for writes
system.mem_ctrls1.rdPerTurnAround::2816-2943            1      0.01%    100.00% # Reads before turning the bus around for writes
system.mem_ctrls1.rdPerTurnAround::total         7639                       # Reads before turning the bus around for writes
system.mem_ctrls1.wrPerTurnAround::samples         7639                       # Writes before turning the bus around for reads
system.mem_ctrls1.wrPerTurnAround::mean      5.617751                       # Writes before turning the bus around for reads
system.mem_ctrls1.wrPerTurnAround::gmean     5.385233                       # Writes before turning the bus around for reads
system.mem_ctrls1.wrPerTurnAround::stdev     2.228262                       # Writes before turning the bus around for reads
system.mem_ctrls1.wrPerTurnAround::4-7           7114     93.13%     93.13% # Writes before turning the bus around for reads
system.mem_ctrls1.wrPerTurnAround::8-11           173      2.26%     95.39% # Writes before turning the bus around for reads
system.mem_ctrls1.wrPerTurnAround::12-15          106      1.39%     96.78% # Writes before turning the bus around for reads
system.mem_ctrls1.wrPerTurnAround::16-19          246      3.22%    100.00% # Writes before turning the bus around for reads
system.mem_ctrls1.wrPerTurnAround::total         7639                       # Writes before turning the bus around for reads
system.mem_ctrls1.totQLat                  3081958422                       # Total ticks spent queuing
system.mem_ctrls1.totMemAccLat             4418852172                       # Total ticks spent from burst creation until serviced by the DRAM
system.mem_ctrls1.totBusLat                 356505000                       # Total ticks spent in databus transfers
system.mem_ctrls1.avgQLat                    43224.62                       # Average queueing delay per DRAM burst
system.mem_ctrls1.avgBusLat                   5000.00                       # Average bus latency per DRAM burst
system.mem_ctrls1.avgMemAccLat               61974.62                       # Average memory access latency per DRAM burst
system.mem_ctrls1.avgRdBW                      117.52                       # Average DRAM read bandwidth in MiByte/s
system.mem_ctrls1.avgWrBW                       70.73                       # Average achieved write bandwidth in MiByte/s
system.mem_ctrls1.avgRdBWSys                   117.55                       # Average system read bandwidth in MiByte/s
system.mem_ctrls1.avgWrBWSys                    70.73                       # Average system write bandwidth in MiByte/s
system.mem_ctrls1.peakBW                     12800.00                       # Theoretical peak bandwidth in MiByte/s
system.mem_ctrls1.busUtil                        1.47                       # Data bus utilization in percentage
system.mem_ctrls1.busUtilRead                    0.92                       # Data bus utilization in percentage for reads
system.mem_ctrls1.busUtilWrite                   0.55                       # Data bus utilization in percentage for writes
system.mem_ctrls1.avgRdQLen                      1.11                       # Average read queue length when enqueuing
system.mem_ctrls1.avgWrQLen                      2.86                       # Average write queue length when enqueuing
system.mem_ctrls1.readRowHits                   55804                       # Number of row buffer hits during reads
system.mem_ctrls1.writeRowHits                  29866                       # Number of row buffer hits during writes
system.mem_ctrls1.readRowHitRate                78.27                       # Row buffer hit rate for reads
system.mem_ctrls1.writeRowHitRate               69.59                       # Row buffer hit rate for writes
system.mem_ctrls1.avgGap                    339912.58                       # Average gap between requests
system.mem_ctrls1.pageHitRate                   75.01                       # Row buffer hit rate, read and write combined
system.mem_ctrls1.memoryStateTime::IDLE   10617688000                       # Time in different power states
system.mem_ctrls1.memoryStateTime::REF     1296360000                       # Time in different power states
system.mem_ctrls1.memoryStateTime::PRE_PDN            0                       # Time in different power states
system.mem_ctrls1.memoryStateTime::ACT    26908468250                       # Time in different power states
system.mem_ctrls1.memoryStateTime::ACT_PDN            0                       # Time in different power states
system.mem_ctrls1.actEnergy::0              112575960                       # Energy for activate commands per rank (pJ)
system.mem_ctrls1.actEnergy::1              103035240                       # Energy for activate commands per rank (pJ)
system.mem_ctrls1.preEnergy::0               61425375                       # Energy for precharge commands per rank (pJ)
system.mem_ctrls1.preEnergy::1               56219625                       # Energy for precharge commands per rank (pJ)
system.mem_ctrls1.readEnergy::0             281626800                       # Energy for read commands per rank (pJ)
system.mem_ctrls1.readEnergy::1             273265200                       # Energy for read commands per rank (pJ)
system.mem_ctrls1.writeEnergy::0            141089040                       # Energy for write commands per rank (pJ)
system.mem_ctrls1.writeEnergy::1            136857600                       # Energy for write commands per rank (pJ)
system.mem_ctrls1.refreshEnergy::0         2535680160                       # Energy for refresh commands per rank (pJ)
system.mem_ctrls1.refreshEnergy::1         2535680160                       # Energy for refresh commands per rank (pJ)
system.mem_ctrls1.actBackEnergy::0        14033597220                       # Energy for active background per rank (pJ)
system.mem_ctrls1.actBackEnergy::1        13364339130                       # Energy for active background per rank (pJ)
system.mem_ctrls1.preBackEnergy::0        10983328500                       # Energy for precharge background per rank (pJ)
system.mem_ctrls1.preBackEnergy::1        11570397000                       # Energy for precharge background per rank (pJ)
system.mem_ctrls1.totalEnergy::0          28149323055                       # Total energy per rank (pJ)
system.mem_ctrls1.totalEnergy::1          28039793955                       # Total energy per rank (pJ)
system.mem_ctrls1.averagePower::0          725.077500                       # Core power per rank (mW)
system.mem_ctrls1.averagePower::1          722.256221                       # Core power per rank (mW)
system.mem_ctrls2.bytes_read::ruby.dir_cntrl2      4566720                       # Number of bytes read from this memory
system.mem_ctrls2.bytes_read::total           4566720                       # Number of bytes read from this memory
system.mem_ctrls2.bytes_written::ruby.dir_cntrl2      2748160                       # Number of bytes written to this memory
system.mem_ctrls2.bytes_written::total        2748160                       # Number of bytes written to this memory
system.mem_ctrls2.num_reads::ruby.dir_cntrl2        71355                       # Number of read requests responded to by this memory
system.mem_ctrls2.num_reads::total              71355                       # Number of read requests responded to by this memory
system.mem_ctrls2.num_writes::ruby.dir_cntrl2        42940                       # Number of write requests responded to by this memory
system.mem_ctrls2.num_writes::total             42940                       # Number of write requests responded to by this memory
system.mem_ctrls2.bw_read::ruby.dir_cntrl2    117608040                       # Total read bandwidth from this memory (bytes/s)
system.mem_ctrls2.bw_read::total            117608040                       # Total read bandwidth from this memory (bytes/s)
system.mem_ctrls2.bw_write::ruby.dir_cntrl2     70774146                       # Write bandwidth from this memory (bytes/s)
system.mem_ctrls2.bw_write::total            70774146                       # Write bandwidth from this memory (bytes/s)
system.mem_ctrls2.bw_total::ruby.dir_cntrl2    188382186                       # Total bandwidth to/from this memory (bytes/s)
system.mem_ctrls2.bw_total::total           188382186                       # Total bandwidth to/from this memory (bytes/s)
system.mem_ctrls2.readReqs                      71355                       # Number of read requests accepted
system.mem_ctrls2.writeReqs                     42940                       # Number of write requests accepted
system.mem_ctrls2.readBursts                    71355                       # Number of DRAM read bursts, including those serviced by the write queue
system.mem_ctrls2.writeBursts                   42940                       # Number of DRAM write bursts, including those merged in the write queue
system.mem_ctrls2.bytesReadDRAM               4565760                       # Total number of bytes read from DRAM
system.mem_ctrls2.bytesReadWrQ                    960                       # Total number of bytes read from write queue
system.mem_ctrls2.bytesWritten                2748032                       # Total number of bytes written to DRAM
system.mem_ctrls2.bytesReadSys                4566720                       # Total read bytes from the system interface side
system.mem_ctrls2.bytesWrittenSys             2748160                       # Total written bytes from the system interface side
system.mem_ctrls2.servicedByWrQ                    15                       # Number of DRAM read bursts serviced by the write queue
system.mem_ctrls2.mergedWrBursts                    0                       # Number of DRAM write bursts merged with an existing one
system.mem_ctrls2.neitherReadNorWriteReqs            0                       # Number of requests that are neither read nor write
system.mem_ctrls2.perBankRdBursts::0             4292                       # Per bank write bursts
system.mem_ctrls2.perBankRdBursts::1             4781                       # Per bank write bursts
system.mem_ctrls2.perBankRdBursts::2             4434                       # Per bank write bursts
system.mem_ctrls2.perBankRdBursts::3             4798                       # Per bank write bursts
system.mem_ctrls2.perBankRdBursts::4             4535                       # Per bank write bursts
system.mem_ctrls2.perBankRdBursts::5             4626                       # Per bank write bursts
system.mem_ctrls2.perBankRdBursts::6             4419                       # Per bank write bursts
system.mem_ctrls2.perBankRdBursts::7             4419                       # Per bank write bursts
system.mem_ctrls2.perBankRdBursts::8             4358                       # Per bank write bursts
system.mem_ctrls2.perBankRdBursts::9             4653                       # Per bank write bursts
system.mem_ctrls2.perBankRdBursts::10            4395                       # Per bank write bursts
system.mem_ctrls2.perBankRdBursts::11            4651                       # Per bank write bursts
system.mem_ctrls2.perBankRdBursts::12            4240                       # Per bank write bursts
system.mem_ctrls2.perBankRdBursts::13            4073                       # Per bank write bursts
system.mem_ctrls2.perBankRdBursts::14            4263                       # Per bank write bursts
system.mem_ctrls2.perBankRdBursts::15            4403                       # Per bank write bursts
system.mem_ctrls2.perBankWrBursts::0             2703                       # Per bank write bursts
system.mem_ctrls2.perBankWrBursts::1             2712                       # Per bank write bursts
system.mem_ctrls2.perBankWrBursts::2             2688                       # Per bank write bursts
system.mem_ctrls2.perBankWrBursts::3             2789                       # Per bank write bursts
system.mem_ctrls2.perBankWrBursts::4             2697                       # Per bank write bursts
system.mem_ctrls2.perBankWrBursts::5             2821                       # Per bank write bursts
system.mem_ctrls2.perBankWrBursts::6             2646                       # Per bank write bursts
system.mem_ctrls2.perBankWrBursts::7             2734                       # Per bank write bursts
system.mem_ctrls2.perBankWrBursts::8             2629                       # Per bank write bursts
system.mem_ctrls2.perBankWrBursts::9             2811                       # Per bank write bursts
system.mem_ctrls2.perBankWrBursts::10            2656                       # Per bank write bursts
system.mem_ctrls2.perBankWrBursts::11            2599                       # Per bank write bursts
system.mem_ctrls2.perBankWrBursts::12            2536                       # Per bank write bursts
system.mem_ctrls2.perBankWrBursts::13            2548                       # Per bank write bursts
system.mem_ctrls2.perBankWrBursts::14            2715                       # Per bank write bursts
system.mem_ctrls2.perBankWrBursts::15            2654                       # Per bank write bursts
system.mem_ctrls2.numRdRetry                      350                       # Number of times read queue was full causing retry
system.mem_ctrls2.numWrRetry                     2048                       # Number of times write queue was full causing retry
system.mem_ctrls2.totGap                  38829473500                       # Total gap between requests
system.mem_ctrls2.readPktSize::0                    0                       # Read request sizes (log2)
system.mem_ctrls2.readPktSize::1                    0                       # Read request sizes (log2)
system.mem_ctrls2.readPktSize::2                    0                       # Read request sizes (log2)
system.mem_ctrls2.readPktSize::3                    0                       # Read request sizes (log2)
system.mem_ctrls2.readPktSize::4                    0                       # Read request sizes (log2)
system.mem_ctrls2.readPktSize::5                    0                       # Read request sizes (log2)
system.mem_ctrls2.readPktSize::6                71355                       # Read request sizes (log2)
system.mem_ctrls2.writePktSize::0                   0                       # Write request sizes (log2)
system.mem_ctrls2.writePktSize::1                   0                       # Write request sizes (log2)
system.mem_ctrls2.writePktSize::2                   0                       # Write request sizes (log2)
system.mem_ctrls2.writePktSize::3                   0                       # Write request sizes (log2)
system.mem_ctrls2.writePktSize::4                   0                       # Write request sizes (log2)
system.mem_ctrls2.writePktSize::5                   0                       # Write request sizes (log2)
system.mem_ctrls2.writePktSize::6               42940                       # Write request sizes (log2)
system.mem_ctrls2.rdQLenPdf::0                  45038                       # What read queue length does an incoming req see
system.mem_ctrls2.rdQLenPdf::1                   3780                       # What read queue length does an incoming req see
system.mem_ctrls2.rdQLenPdf::2                   3277                       # What read queue length does an incoming req see
system.mem_ctrls2.rdQLenPdf::3                   2986                       # What read queue length does an incoming req see
system.mem_ctrls2.rdQLenPdf::4                   2391                       # What read queue length does an incoming req see
system.mem_ctrls2.rdQLenPdf::5                   1983                       # What read queue length does an incoming req see
system.mem_ctrls2.rdQLenPdf::6                   1601                       # What read queue length does an incoming req see
system.mem_ctrls2.rdQLenPdf::7                   1329                       # What read queue length does an incoming req see
system.mem_ctrls2.rdQLenPdf::8                   1139                       # What read queue length does an incoming req see
system.mem_ctrls2.rdQLenPdf::9                    973                       # What read queue length does an incoming req see
system.mem_ctrls2.rdQLenPdf::10                   835                       # What read queue length does an incoming req see
system.mem_ctrls2.rdQLenPdf::11                   662                       # What read queue length does an incoming req see
system.mem_ctrls2.rdQLenPdf::12                   588                       # What read queue length does an incoming req see
system.mem_ctrls2.rdQLenPdf::13                   506                       # What read queue length does an incoming req see
system.mem_ctrls2.rdQLenPdf::14                   445                       # What read queue length does an incoming req see
system.mem_ctrls2.rdQLenPdf::15                   394                       # What read queue length does an incoming req see
system.mem_ctrls2.rdQLenPdf::16                   336                       # What read queue length does an incoming req see
system.mem_ctrls2.rdQLenPdf::17                   294                       # What read queue length does an incoming req see
system.mem_ctrls2.rdQLenPdf::18                   300                       # What read queue length does an incoming req see
system.mem_ctrls2.rdQLenPdf::19                   258                       # What read queue length does an incoming req see
system.mem_ctrls2.rdQLenPdf::20                   223                       # What read queue length does an incoming req see
system.mem_ctrls2.rdQLenPdf::21                   215                       # What read queue length does an incoming req see
system.mem_ctrls2.rdQLenPdf::22                   200                       # What read queue length does an incoming req see
system.mem_ctrls2.rdQLenPdf::23                   197                       # What read queue length does an incoming req see
system.mem_ctrls2.rdQLenPdf::24                   179                       # What read queue length does an incoming req see
system.mem_ctrls2.rdQLenPdf::25                   155                       # What read queue length does an incoming req see
system.mem_ctrls2.rdQLenPdf::26                   147                       # What read queue length does an incoming req see
system.mem_ctrls2.rdQLenPdf::27                   145                       # What read queue length does an incoming req see
system.mem_ctrls2.rdQLenPdf::28                   117                       # What read queue length does an incoming req see
system.mem_ctrls2.rdQLenPdf::29                   110                       # What read queue length does an incoming req see
system.mem_ctrls2.rdQLenPdf::30                    95                       # What read queue length does an incoming req see
system.mem_ctrls2.rdQLenPdf::31                   442                       # What read queue length does an incoming req see
system.mem_ctrls2.wrQLenPdf::0                   7426                       # What write queue length does an incoming req see
system.mem_ctrls2.wrQLenPdf::1                   7646                       # What write queue length does an incoming req see
system.mem_ctrls2.wrQLenPdf::2                   7801                       # What write queue length does an incoming req see
system.mem_ctrls2.wrQLenPdf::3                   7911                       # What write queue length does an incoming req see
system.mem_ctrls2.wrQLenPdf::4                   8048                       # What write queue length does an incoming req see
system.mem_ctrls2.wrQLenPdf::5                    814                       # What write queue length does an incoming req see
system.mem_ctrls2.wrQLenPdf::6                    701                       # What write queue length does an incoming req see
system.mem_ctrls2.wrQLenPdf::7                   2593                       # What write queue length does an incoming req see
system.mem_ctrls2.bytesPerActivate::samples        28520                       # Bytes accessed per row activation
system.mem_ctrls2.bytesPerActivate::mean   256.417391                       # Bytes accessed per row activation
system.mem_ctrls2.bytesPerActivate::gmean   176.540270                       # Bytes accessed per row activation
system.mem_ctrls2.bytesPerActivate::stdev   241.317823                       # Bytes accessed per row activation
system.mem_ctrls2.bytesPerActivate::0-127         9273     32.51%     32.51% # Bytes accessed per row activation
system.mem_ctrls2.bytesPerActivate::128-255         6493     22.77%     55.28% # Bytes accessed per row activation
system.mem_ctrls2.bytesPerActivate::256-383         8162     28.62%     83.90% # Bytes accessed per row activation
system.mem_ctrls2.bytesPerActivate::384-511         1137      3.99%     87.89% # Bytes accessed per row activation
system.mem_ctrls2.bytesPerActivate::512-639          803      2.82%     90.70% # Bytes accessed per row activation
system.mem_ctrls2.bytesPerActivate::640-767          591      2.07%     92.77% # Bytes accessed per row activation
system.mem_ctrls2.bytesPerActivate::768-895          442      1.55%     94.32% # Bytes accessed per row activation
system.mem_ctrls2.bytesPerActivate::896-1023          437      1.53%     95.86% # Bytes accessed per row activation
system.mem_ctrls2.bytesPerActivate::1024-1151         1182      4.14%    100.00% # Bytes accessed per row activation
system.mem_ctrls2.bytesPerActivate::total        28520                       # Bytes accessed per row activation
system.mem_ctrls2.rdPerTurnAround::samples         7648                       # Reads before turning the bus around for writes
system.mem_ctrls2.rdPerTurnAround::mean      9.324529                       # Reads before turning the bus around for writes
system.mem_ctrls2.rdPerTurnAround::stdev    37.522051                       # Reads before turning the bus around for writes
system.mem_ctrls2.rdPerTurnAround::0-127         7643     99.93%     99.93% # Reads before turning the bus around for writes
system.mem_ctrls2.rdPerTurnAround::128-255            3      0.04%     99.97% # Reads before turning the bus around for writes
system.mem_ctrls2.rdPerTurnAround::1152-1279            1      0.01%     99.99% # Reads before turning the bus around for writes
system.mem_ctrls2.rdPerTurnAround::2816-2943            1      0.01%    100.00% # Reads before turning the bus around for writes
system.mem_ctrls2.rdPerTurnAround::total         7648                       # Reads before turning the bus around for writes
system.mem_ctrls2.wrPerTurnAround::samples         7648                       # Writes before turning the bus around for reads
system.mem_ctrls2.wrPerTurnAround::mean      5.614278                       # Writes before turning the bus around for reads
system.mem_ctrls2.wrPerTurnAround::gmean     5.382148                       # Writes before turning the bus around for reads
system.mem_ctrls2.wrPerTurnAround::stdev     2.226900                       # Writes before turning the bus around for reads
system.mem_ctrls2.wrPerTurnAround::4-7           7125     93.16%     93.16% # Writes before turning the bus around for reads
system.mem_ctrls2.wrPerTurnAround::8-11           172      2.25%     95.41% # Writes before turning the bus around for reads
system.mem_ctrls2.wrPerTurnAround::12-15          108      1.41%     96.82% # Writes before turning the bus around for reads
system.mem_ctrls2.wrPerTurnAround::16-19          243      3.18%    100.00% # Writes before turning the bus around for reads
system.mem_ctrls2.wrPerTurnAround::total         7648                       # Writes before turning the bus around for reads
system.mem_ctrls2.totQLat                  3127386968                       # Total ticks spent queuing
system.mem_ctrls2.totMemAccLat             4465011968                       # Total ticks spent from burst creation until serviced by the DRAM
system.mem_ctrls2.totBusLat                 356700000                       # Total ticks spent in databus transfers
system.mem_ctrls2.avgQLat                    43837.78                       # Average queueing delay per DRAM burst
system.mem_ctrls2.avgBusLat                   5000.00                       # Average bus latency per DRAM burst
system.mem_ctrls2.avgMemAccLat               62587.78                       # Average memory access latency per DRAM burst
system.mem_ctrls2.avgRdBW                      117.58                       # Average DRAM read bandwidth in MiByte/s
system.mem_ctrls2.avgWrBW                       70.77                       # Average achieved write bandwidth in MiByte/s
system.mem_ctrls2.avgRdBWSys                   117.61                       # Average system read bandwidth in MiByte/s
system.mem_ctrls2.avgWrBWSys                    70.77                       # Average system write bandwidth in MiByte/s
system.mem_ctrls2.peakBW                     12800.00                       # Theoretical peak bandwidth in MiByte/s
system.mem_ctrls2.busUtil                        1.47                       # Data bus utilization in percentage
system.mem_ctrls2.busUtilRead                    0.92                       # Data bus utilization in percentage for reads
system.mem_ctrls2.busUtilWrite                   0.55                       # Data bus utilization in percentage for writes
system.mem_ctrls2.avgRdQLen                      1.11                       # Average read queue length when enqueuing
system.mem_ctrls2.avgWrQLen                      2.88                       # Average write queue length when enqueuing
system.mem_ctrls2.readRowHits                   55796                       # Number of row buffer hits during reads
system.mem_ctrls2.writeRowHits                  29957                       # Number of row buffer hits during writes
system.mem_ctrls2.readRowHitRate                78.21                       # Row buffer hit rate for reads
system.mem_ctrls2.writeRowHitRate               69.76                       # Row buffer hit rate for writes
system.mem_ctrls2.avgGap                    339730.29                       # Average gap between requests
system.mem_ctrls2.pageHitRate                   75.04                       # Row buffer hit rate, read and write combined
system.mem_ctrls2.memoryStateTime::IDLE   10522935000                       # Time in different power states
system.mem_ctrls2.memoryStateTime::REF     1296360000                       # Time in different power states
system.mem_ctrls2.memoryStateTime::PRE_PDN            0                       # Time in different power states
system.mem_ctrls2.memoryStateTime::ACT    27003221250                       # Time in different power states
system.mem_ctrls2.memoryStateTime::ACT_PDN            0                       # Time in different power states
system.mem_ctrls2.actEnergy::0              112326480                       # Energy for activate commands per rank (pJ)
system.mem_ctrls2.actEnergy::1              103110840                       # Energy for activate commands per rank (pJ)
system.mem_ctrls2.preEnergy::0               61289250                       # Energy for precharge commands per rank (pJ)
system.mem_ctrls2.preEnergy::1               56260875                       # Energy for precharge commands per rank (pJ)
system.mem_ctrls2.readEnergy::0             282009000                       # Energy for read commands per rank (pJ)
system.mem_ctrls2.readEnergy::1             273210600                       # Energy for read commands per rank (pJ)
system.mem_ctrls2.writeEnergy::0            141063120                       # Energy for write commands per rank (pJ)
system.mem_ctrls2.writeEnergy::1            137032560                       # Energy for write commands per rank (pJ)
system.mem_ctrls2.refreshEnergy::0         2535680160                       # Energy for refresh commands per rank (pJ)
system.mem_ctrls2.refreshEnergy::1         2535680160                       # Energy for refresh commands per rank (pJ)
system.mem_ctrls2.actBackEnergy::0        14077286865                       # Energy for active background per rank (pJ)
system.mem_ctrls2.actBackEnergy::1        13434723585                       # Energy for active background per rank (pJ)
system.mem_ctrls2.preBackEnergy::0        10945004250                       # Energy for precharge background per rank (pJ)
system.mem_ctrls2.preBackEnergy::1        11508656250                       # Energy for precharge background per rank (pJ)
system.mem_ctrls2.totalEnergy::0          28154659125                       # Total energy per rank (pJ)
system.mem_ctrls2.totalEnergy::1          28048674870                       # Total energy per rank (pJ)
system.mem_ctrls2.averagePower::0          725.214948                       # Core power per rank (mW)
system.mem_ctrls2.averagePower::1          722.484978                       # Core power per rank (mW)
system.mem_ctrls3.bytes_read::ruby.dir_cntrl3      4548544                       # Number of bytes read from this memory
system.mem_ctrls3.bytes_read::total           4548544                       # Number of bytes read from this memory
system.mem_ctrls3.bytes_written::ruby.dir_cntrl3      2743616                       # Number of bytes written to this memory
system.mem_ctrls3.bytes_written::total        2743616                       # Number of bytes written to this memory
system.mem_ctrls3.num_reads::ruby.dir_cntrl3        71071                       # Number of read requests responded to by this memory
system.mem_ctrls3.num_reads::total              71071                       # Number of read requests responded to by this memory
system.mem_ctrls3.num_writes::ruby.dir_cntrl3        42869                       # Number of write requests responded to by this memory
system.mem_ctrls3.num_writes::total             42869                       # Number of write requests responded to by this memory
system.mem_ctrls3.bw_read::ruby.dir_cntrl3    117139948                       # Total read bandwidth from this memory (bytes/s)
system.mem_ctrls3.bw_read::total            117139948                       # Total read bandwidth from this memory (bytes/s)
system.mem_ctrls3.bw_write::ruby.dir_cntrl3     70657124                       # Write bandwidth from this memory (bytes/s)
system.mem_ctrls3.bw_write::total            70657124                       # Write bandwidth from this memory (bytes/s)
system.mem_ctrls3.bw_total::ruby.dir_cntrl3    187797071                       # Total bandwidth to/from this memory (bytes/s)
system.mem_ctrls3.bw_total::total           187797071                       # Total bandwidth to/from this memory (bytes/s)
system.mem_ctrls3.readReqs                      71072                       # Number of read requests accepted
system.mem_ctrls3.writeReqs                     42869                       # Number of write requests accepted
system.mem_ctrls3.readBursts                    71072                       # Number of DRAM read bursts, including those serviced by the write queue
system.mem_ctrls3.writeBursts                   42869                       # Number of DRAM write bursts, including those merged in the write queue
system.mem_ctrls3.bytesReadDRAM               4548160                       # Total number of bytes read from DRAM
system.mem_ctrls3.bytesReadWrQ                    448                       # Total number of bytes read from write queue
system.mem_ctrls3.bytesWritten                2743552                       # Total number of bytes written to DRAM
system.mem_ctrls3.bytesReadSys                4548608                       # Total read bytes from the system interface side
system.mem_ctrls3.bytesWrittenSys             2743616                       # Total written bytes from the system interface side
system.mem_ctrls3.servicedByWrQ                     7                       # Number of DRAM read bursts serviced by the write queue
system.mem_ctrls3.mergedWrBursts                    0                       # Number of DRAM write bursts merged with an existing one
system.mem_ctrls3.neitherReadNorWriteReqs            0                       # Number of requests that are neither read nor write
system.mem_ctrls3.perBankRdBursts::0             4281                       # Per bank write bursts
system.mem_ctrls3.perBankRdBursts::1             4737                       # Per bank write bursts
system.mem_ctrls3.perBankRdBursts::2             4407                       # Per bank write bursts
system.mem_ctrls3.perBankRdBursts::3             4759                       # Per bank write bursts
system.mem_ctrls3.perBankRdBursts::4             4487                       # Per bank write bursts
system.mem_ctrls3.perBankRdBursts::5             4595                       # Per bank write bursts
system.mem_ctrls3.perBankRdBursts::6             4405                       # Per bank write bursts
system.mem_ctrls3.perBankRdBursts::7             4417                       # Per bank write bursts
system.mem_ctrls3.perBankRdBursts::8             4365                       # Per bank write bursts
system.mem_ctrls3.perBankRdBursts::9             4633                       # Per bank write bursts
system.mem_ctrls3.perBankRdBursts::10            4406                       # Per bank write bursts
system.mem_ctrls3.perBankRdBursts::11            4620                       # Per bank write bursts
system.mem_ctrls3.perBankRdBursts::12            4224                       # Per bank write bursts
system.mem_ctrls3.perBankRdBursts::13            4052                       # Per bank write bursts
system.mem_ctrls3.perBankRdBursts::14            4276                       # Per bank write bursts
system.mem_ctrls3.perBankRdBursts::15            4401                       # Per bank write bursts
system.mem_ctrls3.perBankWrBursts::0             2708                       # Per bank write bursts
system.mem_ctrls3.perBankWrBursts::1             2700                       # Per bank write bursts
system.mem_ctrls3.perBankWrBursts::2             2689                       # Per bank write bursts
system.mem_ctrls3.perBankWrBursts::3             2773                       # Per bank write bursts
system.mem_ctrls3.perBankWrBursts::4             2690                       # Per bank write bursts
system.mem_ctrls3.perBankWrBursts::5             2817                       # Per bank write bursts
system.mem_ctrls3.perBankWrBursts::6             2639                       # Per bank write bursts
system.mem_ctrls3.perBankWrBursts::7             2726                       # Per bank write bursts
system.mem_ctrls3.perBankWrBursts::8             2625                       # Per bank write bursts
system.mem_ctrls3.perBankWrBursts::9             2804                       # Per bank write bursts
system.mem_ctrls3.perBankWrBursts::10            2651                       # Per bank write bursts
system.mem_ctrls3.perBankWrBursts::11            2605                       # Per bank write bursts
system.mem_ctrls3.perBankWrBursts::12            2531                       # Per bank write bursts
system.mem_ctrls3.perBankWrBursts::13            2555                       # Per bank write bursts
system.mem_ctrls3.perBankWrBursts::14            2707                       # Per bank write bursts
system.mem_ctrls3.perBankWrBursts::15            2648                       # Per bank write bursts
system.mem_ctrls3.numRdRetry                      403                       # Number of times read queue was full causing retry
system.mem_ctrls3.numWrRetry                     2527                       # Number of times write queue was full causing retry
system.mem_ctrls3.totGap                  38829256000                       # Total gap between requests
system.mem_ctrls3.readPktSize::0                    0                       # Read request sizes (log2)
system.mem_ctrls3.readPktSize::1                    0                       # Read request sizes (log2)
system.mem_ctrls3.readPktSize::2                    0                       # Read request sizes (log2)
system.mem_ctrls3.readPktSize::3                    0                       # Read request sizes (log2)
system.mem_ctrls3.readPktSize::4                    0                       # Read request sizes (log2)
system.mem_ctrls3.readPktSize::5                    0                       # Read request sizes (log2)
system.mem_ctrls3.readPktSize::6                71072                       # Read request sizes (log2)
system.mem_ctrls3.writePktSize::0                   0                       # Write request sizes (log2)
system.mem_ctrls3.writePktSize::1                   0                       # Write request sizes (log2)
system.mem_ctrls3.writePktSize::2                   0                       # Write request sizes (log2)
system.mem_ctrls3.writePktSize::3                   0                       # Write request sizes (log2)
system.mem_ctrls3.writePktSize::4                   0                       # Write request sizes (log2)
system.mem_ctrls3.writePktSize::5                   0                       # Write request sizes (log2)
system.mem_ctrls3.writePktSize::6               42869                       # Write request sizes (log2)
system.mem_ctrls3.rdQLenPdf::0                  44515                       # What read queue length does an incoming req see
system.mem_ctrls3.rdQLenPdf::1                   3431                       # What read queue length does an incoming req see
system.mem_ctrls3.rdQLenPdf::2                   2925                       # What read queue length does an incoming req see
system.mem_ctrls3.rdQLenPdf::3                   2674                       # What read queue length does an incoming req see
system.mem_ctrls3.rdQLenPdf::4                   2291                       # What read queue length does an incoming req see
system.mem_ctrls3.rdQLenPdf::5                   1995                       # What read queue length does an incoming req see
system.mem_ctrls3.rdQLenPdf::6                   1674                       # What read queue length does an incoming req see
system.mem_ctrls3.rdQLenPdf::7                   1481                       # What read queue length does an incoming req see
system.mem_ctrls3.rdQLenPdf::8                   1292                       # What read queue length does an incoming req see
system.mem_ctrls3.rdQLenPdf::9                   1036                       # What read queue length does an incoming req see
system.mem_ctrls3.rdQLenPdf::10                   925                       # What read queue length does an incoming req see
system.mem_ctrls3.rdQLenPdf::11                   798                       # What read queue length does an incoming req see
system.mem_ctrls3.rdQLenPdf::12                   674                       # What read queue length does an incoming req see
system.mem_ctrls3.rdQLenPdf::13                   586                       # What read queue length does an incoming req see
system.mem_ctrls3.rdQLenPdf::14                   512                       # What read queue length does an incoming req see
system.mem_ctrls3.rdQLenPdf::15                   473                       # What read queue length does an incoming req see
system.mem_ctrls3.rdQLenPdf::16                   388                       # What read queue length does an incoming req see
system.mem_ctrls3.rdQLenPdf::17                   330                       # What read queue length does an incoming req see
system.mem_ctrls3.rdQLenPdf::18                   299                       # What read queue length does an incoming req see
system.mem_ctrls3.rdQLenPdf::19                   282                       # What read queue length does an incoming req see
system.mem_ctrls3.rdQLenPdf::20                   296                       # What read queue length does an incoming req see
system.mem_ctrls3.rdQLenPdf::21                   243                       # What read queue length does an incoming req see
system.mem_ctrls3.rdQLenPdf::22                   215                       # What read queue length does an incoming req see
system.mem_ctrls3.rdQLenPdf::23                   186                       # What read queue length does an incoming req see
system.mem_ctrls3.rdQLenPdf::24                   181                       # What read queue length does an incoming req see
[...]
system.ruby.L2Cache_Controller.IS.Mem_Data::total        12353                      
system.ruby.L2Cache_Controller.IM.L1_GETX |           1     50.00%     50.00% |           0      0.00%     50.00% |           0      0.00%     50.00% |           0      0.00%     50.00% |           0      0.00%     50.00% |           0      0.00%     50.00% |           0      0.00%     50.00% |           0      0.00%     50.00% |           0      0.00%     50.00% |           0      0.00%     50.00% |           0      0.00%     50.00% |           0      0.00%     50.00% |           0      0.00%     50.00% |           0      0.00%     50.00% |           0      0.00%     50.00% |           0      0.00%     50.00% |           1     50.00%    100.00% |           0      0.00%    100.00% |           0      0.00%    100.00% |           0      0.00%    100.00% |           0      0.00%    100.00% |           0      0.00%    100.00% |           0      0.00%    100.00% |           0      0.00%    100.00% |           0      0.00%    100.00% |           0      0.00%    100.00% |           0      0.00%    100.00% |           0      0.00%    100.00% |           0      0.00%    100.00% |           0      0.00%    100.00% |           0      0.00%    100.00% |           0      0.00%    100.00%
system.ruby.L2Cache_Controller.IM.L1_GETX::total            2                      
system.ruby.L2Cache_Controller.IM.Mem_Data |        4705      3.12%      3.12% |        4697      3.12%      6.24% |        4706      3.12%      9.37% |        4713      3.13%     12.50% |        4704      3.12%     15.62% |        4711      3.13%     18.75% |        4710      3.13%     21.88% |        4694      3.12%     24.99% |        4710      3.13%     28.12% |        4711      3.13%     31.25% |        4696      3.12%     34.37% |        4715      3.13%     37.50% |        4700      3.12%     40.62% |        4703      3.12%     43.74% |        4702      3.12%     46.86% |        4698      3.12%     49.98% |        4716      3.13%     53.12% |        4710      3.13%     56.24% |        4712      3.13%     59.37% |        4706      3.12%     62.50% |        4709      3.13%     65.62% |        4721      3.13%     68.76% |        4701      3.12%     71.88% |        4707      3.13%     75.01% |        4720      3.13%     78.14% |        4710      3.13%     81.27% |        4716      3.13%     84.40% |        4702      3.12%     87.52% |        4703      3.12%     90.64% |        4699      3.12%     93.76% |        4703      3.12%     96.89% |        4688      3.11%    100.00%
system.ruby.L2Cache_Controller.IM.Mem_Data::total       150598                      
system.ruby.L2Cache_Controller.SS_MB.Exclusive_Unblock |           3      6.82%      6.82% |           6     13.64%     20.45% |           3      6.82%     27.27% |           4      9.09%     36.36% |           0      0.00%     36.36% |           0      0.00%     36.36% |           0      0.00%     36.36% |           0      0.00%     36.36% |           0      0.00%     36.36% |           0      0.00%     36.36% |           0      0.00%     36.36% |           0      0.00%     36.36% |           3      6.82%     43.18% |           0      0.00%     43.18% |           4      9.09%     52.27% |           0      0.00%     52.27% |           1      2.27%     54.55% |           0      0.00%     54.55% |          11     25.00%     79.55% |           2      4.55%     84.09% |           0      0.00%     84.09% |           1      2.27%     86.36% |           0      0.00%     86.36% |           1      2.27%     88.64% |           1      2.27%     90.91% |           0      0.00%     90.91% |           1      2.27%     93.18% |           2      4.55%     97.73% |           1      2.27%    100.00% |           0      0.00%    100.00% |           0      0.00%    100.00% |           0      0.00%    100.00%
system.ruby.L2Cache_Controller.SS_MB.Exclusive_Unblock::total           44                      
system.ruby.L2Cache_Controller.MT_MB.L1_GETS |           2    100.00%    100.00% |           0      0.00%    100.00% |           0      0.00%    100.00% |           0      0.00%    100.00% |           0      0.00%    100.00% |           0      0.00%    100.00% |           0      0.00%    100.00% |           0      0.00%    100.00% |           0      0.00%    100.00% |           0      0.00%    100.00% |           0      0.00%    100.00% |           0      0.00%    100.00% |           0      0.00%    100.00% |           0      0.00%    100.00% |           0      0.00%    100.00% |           0      0.00%    100.00% |           0      0.00%    100.00% |           0      0.00%    100.00% |           0      0.00%    100.00% |           0      0.00%    100.00% |           0      0.00%    100.00% |           0      0.00%    100.00% |           0      0.00%    100.00% |           0      0.00%    100.00% |           0      0.00%    100.00% |           0      0.00%    100.00% |           0      0.00%    100.00% |           0      0.00%    100.00% |           0      0.00%    100.00% |           0      0.00%    100.00% |           0      0.00%    100.00% |           0      0.00%    100.00%
system.ruby.L2Cache_Controller.MT_MB.L1_GETS::total            2                      
system.ruby.L2Cache_Controller.MT_MB.L1_GETX |           1    100.00%    100.00% |           0      0.00%    100.00% |           0      0.00%    100.00% |           0      0.00%    100.00% |           0      0.00%    100.00% |           0      0.00%    100.00% |           0      0.00%    100.00% |           0      0.00%    100.00% |           0      0.00%    100.00% |           0      0.00%    100.00% |           0      0.00%    100.00% |           0      0.00%    100.00% |           0      0.00%    100.00% |           0      0.00%    100.00% |           0      0.00%    100.00% |           0      0.00%    100.00% |           0      0.00%    100.00% |           0      0.00%    100.00% |           0      0.00%    100.00% |           0      0.00%    100.00% |           0      0.00%    100.00% |           0      0.00%    100.00% |           0      0.00%    100.00% |           0      0.00%    100.00% |           0      0.00%    100.00% |           0      0.00%    100.00% |           0      0.00%    100.00% |           0      0.00%    100.00% |           0      0.00%    100.00% |           0      0.00%    100.00% |           0      0.00%    100.00% |           0      0.00%    100.00%
system.ruby.L2Cache_Controller.MT_MB.L1_GETX::total            1                      
system.ruby.L2Cache_Controller.MT_MB.Exclusive_Unblock |       60420     12.23%     12.23% |       15538      3.15%     15.38% |       12748      2.58%     17.96% |       14800      3.00%     20.96% |       13335      2.70%     23.66% |       12717      2.57%     26.23% |       12239      2.48%     28.71% |       12902      2.61%     31.32% |       13097      2.65%     33.97% |       12757      2.58%     36.56% |       15512      3.14%     39.70% |       15760      3.19%     42.89% |       14128      2.86%     45.75% |       13215      2.68%     48.42% |       12000      2.43%     50.85% |       12462      2.52%     53.38% |       13985      2.83%     56.21% |       12805      2.59%     58.80% |       13229      2.68%     61.48% |       14224      2.88%     64.36% |       14902      3.02%     67.37% |       15874      3.21%     70.59% |       13720      2.78%     73.37% |       13754      2.78%     76.15% |       13836      2.80%     78.95% |       13398      2.71%     81.66% |       13249      2.68%     84.35% |       12958      2.62%     86.97% |       15563      3.15%     90.12% |       13986      2.83%     92.95% |       16358      3.31%     96.27% |       18447      3.73%    100.00%
system.ruby.L2Cache_Controller.MT_MB.Exclusive_Unblock::total       493918                      
system.ruby.L2Cache_Controller.MT_IIB.WB_Data |           0      0.00%      0.00% |           1     20.00%     20.00% |           1     20.00%     40.00% |           1     20.00%     60.00% |           0      0.00%     60.00% |           0      0.00%     60.00% |           1     20.00%     80.00% |           0      0.00%     80.00% |           0      0.00%     80.00% |           1     20.00%    100.00% |           0      0.00%    100.00% |           0      0.00%    100.00% |           0      0.00%    100.00% |           0      0.00%    100.00% |           0      0.00%    100.00% |           0      0.00%    100.00% |           0      0.00%    100.00% |           0      0.00%    100.00% |           0      0.00%    100.00% |           0      0.00%    100.00% |           0      0.00%    100.00% |           0      0.00%    100.00% |           0      0.00%    100.00% |           0      0.00%    100.00% |           0      0.00%    100.00% |           0      0.00%    100.00% |           0      0.00%    100.00% |           0      0.00%    100.00% |           0      0.00%    100.00% |           0      0.00%    100.00% |           0      0.00%    100.00% |           0      0.00%    100.00%
system.ruby.L2Cache_Controller.MT_IIB.WB_Data::total            5                      
system.ruby.L2Cache_Controller.MT_IIB.WB_Data_clean |        2980     50.98%     50.98% |           0      0.00%     50.98% |           0      0.00%     50.98% |           0      0.00%     50.98% |           0      0.00%     50.98% |           0      0.00%     50.98% |           0      0.00%     50.98% |           0      0.00%     50.98% |           0      0.00%     50.98% |           0      0.00%     50.98% |           0      0.00%     50.98% |           0      0.00%     50.98% |           0      0.00%     50.98% |           0      0.00%     50.98% |           0      0.00%     50.98% |           0      0.00%     50.98% |        2865     49.02%    100.00% |           0      0.00%    100.00% |           0      0.00%    100.00% |           0      0.00%    100.00% |           0      0.00%    100.00% |           0      0.00%    100.00% |           0      0.00%    100.00% |           0      0.00%    100.00% |           0      0.00%    100.00% |           0      0.00%    100.00% |           0      0.00%    100.00% |           0      0.00%    100.00% |           0      0.00%    100.00% |           0      0.00%    100.00% |           0      0.00%    100.00% |           0      0.00%    100.00%
system.ruby.L2Cache_Controller.MT_IIB.WB_Data_clean::total         5845                      
system.ruby.L2Cache_Controller.MT_IIB.Unblock |          69     26.44%     26.44% |           0      0.00%     26.44% |           0      0.00%     26.44% |           0      0.00%     26.44% |           0      0.00%     26.44% |           0      0.00%     26.44% |           0      0.00%     26.44% |           0      0.00%     26.44% |           0      0.00%     26.44% |           0      0.00%     26.44% |           0      0.00%     26.44% |           0      0.00%     26.44% |           0      0.00%     26.44% |           0      0.00%     26.44% |           0      0.00%     26.44% |           0      0.00%     26.44% |         192     73.56%    100.00% |           0      0.00%    100.00% |           0      0.00%    100.00% |           0      0.00%    100.00% |           0      0.00%    100.00% |           0      0.00%    100.00% |           0      0.00%    100.00% |           0      0.00%    100.00% |           0      0.00%    100.00% |           0      0.00%    100.00% |           0      0.00%    100.00% |           0      0.00%    100.00% |           0      0.00%    100.00% |           0      0.00%    100.00% |           0      0.00%    100.00% |           0      0.00%    100.00%
system.ruby.L2Cache_Controller.MT_IIB.Unblock::total          261                      
system.ruby.L2Cache_Controller.MT_IB.WB_Data_clean |          69     26.44%     26.44% |           0      0.00%     26.44% |           0      0.00%     26.44% |           0      0.00%     26.44% |           0      0.00%     26.44% |           0      0.00%     26.44% |           0      0.00%     26.44% |           0      0.00%     26.44% |           0      0.00%     26.44% |           0      0.00%     26.44% |           0      0.00%     26.44% |           0      0.00%     26.44% |           0      0.00%     26.44% |           0      0.00%     26.44% |           0      0.00%     26.44% |           0      0.00%     26.44% |         192     73.56%    100.00% |           0      0.00%    100.00% |           0      0.00%    100.00% |           0      0.00%    100.00% |           0      0.00%    100.00% |           0      0.00%    100.00% |           0      0.00%    100.00% |           0      0.00%    100.00% |           0      0.00%    100.00% |           0      0.00%    100.00% |           0      0.00%    100.00% |           0      0.00%    100.00% |           0      0.00%    100.00% |           0      0.00%    100.00% |           0      0.00%    100.00% |           0      0.00%    100.00%
system.ruby.L2Cache_Controller.MT_IB.WB_Data_clean::total          261                      
system.ruby.L2Cache_Controller.MT_SB.Unblock |        2980     50.94%     50.94% |           1      0.02%     50.96% |           1      0.02%     50.97% |           1      0.02%     50.99% |           0      0.00%     50.99% |           0      0.00%     50.99% |           1      0.02%     51.01% |           0      0.00%     51.01% |           0      0.00%     51.01% |           1      0.02%     51.03% |           0      0.00%     51.03% |           0      0.00%     51.03% |           0      0.00%     51.03% |           0      0.00%     51.03% |           0      0.00%     51.03% |           0      0.00%     51.03% |        2865     48.97%    100.00% |           0      0.00%    100.00% |           0      0.00%    100.00% |           0      0.00%    100.00% |           0      0.00%    100.00% |           0      0.00%    100.00% |           0      0.00%    100.00% |           0      0.00%    100.00% |           0      0.00%    100.00% |           0      0.00%    100.00% |           0      0.00%    100.00% |           0      0.00%    100.00% |           0      0.00%    100.00% |           0      0.00%    100.00% |           0      0.00%    100.00% |           0      0.00%    100.00%
system.ruby.L2Cache_Controller.MT_SB.Unblock::total         5850                      
system.ruby.SimicsNetworkPortInterface_Controller.MessageSend |       16543     10.35%     10.35% |       79910     50.00%     60.35% |        8498      5.32%     65.67% |        7707      4.82%     70.49% |        7355      4.60%     75.09% |        7870      4.92%     80.02% |        7854      4.91%     84.93% |        7766      4.86%     89.79% |        7881      4.93%     94.72% |        8436      5.28%    100.00% |           0      0.00%    100.00% |           0      0.00%    100.00% |           0      0.00%    100.00% |           0      0.00%    100.00% |           0      0.00%    100.00% |           0      0.00%    100.00% |           0      0.00%    100.00% |           0      0.00%    100.00% |           0      0.00%    100.00% |           0      0.00%    100.00% |           0      0.00%    100.00% |           0      0.00%    100.00% |           0      0.00%    100.00% |           0      0.00%    100.00% |           0      0.00%    100.00% |           0      0.00%    100.00% |           0      0.00%    100.00% |           0      0.00%    100.00% |           0      0.00%    100.00% |           0      0.00%    100.00% |           0      0.00%    100.00% |           0      0.00%    100.00%
system.ruby.SimicsNetworkPortInterface_Controller.MessageSend::total       159820                      
system.ruby.SimicsNetworkPortInterface_Controller.MessageRecv |       16543     10.35%     10.35% |       79910     50.00%     60.35% |        8498      5.32%     65.67% |        7707      4.82%     70.49% |        7355      4.60%     75.09% |        7870      4.92%     80.02% |        7854      4.91%     84.93% |        7766      4.86%     89.79% |        7881      4.93%     94.72% |        8436      5.28%    100.00% |           0      0.00%    100.00% |           0      0.00%    100.00% |           0      0.00%    100.00% |           0      0.00%    100.00% |           0      0.00%    100.00% |           0      0.00%    100.00% |           0      0.00%    100.00% |           0      0.00%    100.00% |           0      0.00%    100.00% |           0      0.00%    100.00% |           0      0.00%    100.00% |           0      0.00%    100.00% |           0      0.00%    100.00% |           0      0.00%    100.00% |           0      0.00%    100.00% |           0      0.00%    100.00% |           0      0.00%    100.00% |           0      0.00%    100.00% |           0      0.00%    100.00% |           0      0.00%    100.00% |           0      0.00%    100.00% |           0      0.00%    100.00%
system.ruby.SimicsNetworkPortInterface_Controller.MessageRecv::total       159820                      
system.ruby.SimicsNetworkPortInterface_Controller.A.MessageSend |       16543     10.35%     10.35% |       79910     50.00%     60.35% |        8498      5.32%     65.67% |        7707      4.82%     70.49% |        7355      4.60%     75.09% |        7870      4.92%     80.02% |        7854      4.91%     84.93% |        7766      4.86%     89.79% |        7881      4.93%     94.72% |        8436      5.28%    100.00% |           0      0.00%    100.00% |           0      0.00%    100.00% |           0      0.00%    100.00% |           0      0.00%    100.00% |           0      0.00%    100.00% |           0      0.00%    100.00% |           0      0.00%    100.00% |           0      0.00%    100.00% |           0      0.00%    100.00% |           0      0.00%    100.00% |           0      0.00%    100.00% |           0      0.00%    100.00% |           0      0.00%    100.00% |           0      0.00%    100.00% |           0      0.00%    100.00% |           0      0.00%    100.00% |           0      0.00%    100.00% |           0      0.00%    100.00% |           0      0.00%    100.00% |           0      0.00%    100.00% |           0      0.00%    100.00% |           0      0.00%    100.00%
system.ruby.SimicsNetworkPortInterface_Controller.A.MessageSend::total       159820                      
system.ruby.SimicsNetworkPortInterface_Controller.A.MessageRecv |       16543     10.35%     10.35% |       79910     50.00%     60.35% |        8498      5.32%     65.67% |        7707      4.82%     70.49% |        7355      4.60%     75.09% |        7870      4.92%     80.02% |        7854      4.91%     84.93% |        7766      4.86%     89.79% |        7881      4.93%     94.72% |        8436      5.28%    100.00% |           0      0.00%    100.00% |           0      0.00%    100.00% |           0      0.00%    100.00% |           0      0.00%    100.00% |           0      0.00%    100.00% |           0      0.00%    100.00% |           0      0.00%    100.00% |           0      0.00%    100.00% |           0      0.00%    100.00% |           0      0.00%    100.00% |           0      0.00%    100.00% |           0      0.00%    100.00% |           0      0.00%    100.00% |           0      0.00%    100.00% |           0      0.00%    100.00% |           0      0.00%    100.00% |           0      0.00%    100.00% |           0      0.00%    100.00% |           0      0.00%    100.00% |           0      0.00%    100.00% |           0      0.00%    100.00% |           0      0.00%    100.00%
system.ruby.SimicsNetworkPortInterface_Controller.A.MessageRecv::total       159820                      
system.switch_cpus.kern.inst.arm                    0                       # number of arm instructions executed
system.switch_cpus.kern.inst.quiesce                0                       # number of quiesce instructions executed

---------- End Simulation Statistics   ----------
