
---------- Begin Simulation Statistics ----------
sim_seconds                                  0.059793                       # Number of seconds simulated
sim_ticks                                 59792808500                       # Number of ticks simulated
final_tick                               5235960887000                       # Number of ticks from beginning of simulation (restored from checkpoints and never reset)
sim_freq                                 1000000000000                       # Frequency of simulated ticks
host_inst_rate                                  45584                       # Simulator instruction rate (inst/s)
host_op_rate                                    81084                       # Simulator op (including micro ops) rate (op/s)
host_tick_rate                               68501714                       # Simulator tick rate (ticks/s)
host_mem_usage                                4818656                       # Number of bytes of host memory used
host_seconds                                   872.87                       # Real time elapsed on the host
sim_insts                                    39788452                       # Number of instructions simulated
sim_ops                                      70775782                       # Number of ops (including micro ops) simulated
system.voltage_domain.voltage                       1                       # Voltage in Volts
system.clk_domain.clock                           500                       # Clock period in ticks
system.mem_ctrls0.bytes_read::ruby.dir_cntrl0     14034560                       # Number of bytes read from this memory
system.mem_ctrls0.bytes_read::total          14034560                       # Number of bytes read from this memory
system.mem_ctrls0.bytes_written::ruby.dir_cntrl0      4007680                       # Number of bytes written to this memory
system.mem_ctrls0.bytes_written::total        4007680                       # Number of bytes written to this memory
system.mem_ctrls0.num_reads::ruby.dir_cntrl0       219290                       # Number of read requests responded to by this memory
system.mem_ctrls0.num_reads::total             219290                       # Number of read requests responded to by this memory
system.mem_ctrls0.num_writes::ruby.dir_cntrl0        62620                       # Number of write requests responded to by this memory
system.mem_ctrls0.num_writes::total             62620                       # Number of write requests responded to by this memory
system.mem_ctrls0.bw_read::ruby.dir_cntrl0    234719866                       # Total read bandwidth from this memory (bytes/s)
system.mem_ctrls0.bw_read::total            234719866                       # Total read bandwidth from this memory (bytes/s)
system.mem_ctrls0.bw_write::ruby.dir_cntrl0     67026121                       # Write bandwidth from this memory (bytes/s)
system.mem_ctrls0.bw_write::total            67026121                       # Write bandwidth from this memory (bytes/s)
system.mem_ctrls0.bw_total::ruby.dir_cntrl0    301745987                       # Total bandwidth to/from this memory (bytes/s)
system.mem_ctrls0.bw_total::total           301745987                       # Total bandwidth to/from this memory (bytes/s)
system.mem_ctrls0.readReqs                     219291                       # Number of read requests accepted
system.mem_ctrls0.writeReqs                     62620                       # Number of write requests accepted
system.mem_ctrls0.readBursts                   219291                       # Number of DRAM read bursts, including those serviced by the write queue
system.mem_ctrls0.writeBursts                   62620                       # Number of DRAM write bursts, including those merged in the write queue
system.mem_ctrls0.bytesReadDRAM              14032832                       # Total number of bytes read from DRAM
system.mem_ctrls0.bytesReadWrQ                   1792                       # Total number of bytes read from write queue
system.mem_ctrls0.bytesWritten                4007616                       # Total number of bytes written to DRAM
system.mem_ctrls0.bytesReadSys               14034624                       # Total read bytes from the system interface side
system.mem_ctrls0.bytesWrittenSys             4007680                       # Total written bytes from the system interface side
system.mem_ctrls0.servicedByWrQ                    28                       # Number of DRAM read bursts serviced by the write queue
system.mem_ctrls0.mergedWrBursts                    0                       # Number of DRAM write bursts merged with an existing one
system.mem_ctrls0.neitherReadNorWriteReqs            0                       # Number of requests that are neither read nor write
system.mem_ctrls0.perBankRdBursts::0            13463                       # Per bank write bursts
system.mem_ctrls0.perBankRdBursts::1            13998                       # Per bank write bursts
system.mem_ctrls0.perBankRdBursts::2            13664                       # Per bank write bursts
system.mem_ctrls0.perBankRdBursts::3            14063                       # Per bank write bursts
system.mem_ctrls0.perBankRdBursts::4            13703                       # Per bank write bursts
system.mem_ctrls0.perBankRdBursts::5            14282                       # Per bank write bursts
system.mem_ctrls0.perBankRdBursts::6            13740                       # Per bank write bursts
system.mem_ctrls0.perBankRdBursts::7            13671                       # Per bank write bursts
system.mem_ctrls0.perBankRdBursts::8            13563                       # Per bank write bursts
system.mem_ctrls0.perBankRdBursts::9            13898                       # Per bank write bursts
system.mem_ctrls0.perBankRdBursts::10           13605                       # Per bank write bursts
system.mem_ctrls0.perBankRdBursts::11           13833                       # Per bank write bursts
system.mem_ctrls0.perBankRdBursts::12           13385                       # Per bank write bursts
system.mem_ctrls0.perBankRdBursts::13           13265                       # Per bank write bursts
system.mem_ctrls0.perBankRdBursts::14           13559                       # Per bank write bursts
system.mem_ctrls0.perBankRdBursts::15           13571                       # Per bank write bursts
system.mem_ctrls0.perBankWrBursts::0             3844                       # Per bank write bursts
system.mem_ctrls0.perBankWrBursts::1             3927                       # Per bank write bursts
system.mem_ctrls0.perBankWrBursts::2             3906                       # Per bank write bursts
system.mem_ctrls0.perBankWrBursts::3             4132                       # Per bank write bursts
system.mem_ctrls0.perBankWrBursts::4             3927                       # Per bank write bursts
system.mem_ctrls0.perBankWrBursts::5             4077                       # Per bank write bursts
system.mem_ctrls0.perBankWrBursts::6             3983                       # Per bank write bursts
system.mem_ctrls0.perBankWrBursts::7             3947                       # Per bank write bursts
system.mem_ctrls0.perBankWrBursts::8             3818                       # Per bank write bursts
system.mem_ctrls0.perBankWrBursts::9             4072                       # Per bank write bursts
system.mem_ctrls0.perBankWrBursts::10            3841                       # Per bank write bursts
system.mem_ctrls0.perBankWrBursts::11            3777                       # Per bank write bursts
system.mem_ctrls0.perBankWrBursts::12            3724                       # Per bank write bursts
system.mem_ctrls0.perBankWrBursts::13            3762                       # Per bank write bursts
system.mem_ctrls0.perBankWrBursts::14            4009                       # Per bank write bursts
system.mem_ctrls0.perBankWrBursts::15            3873                       # Per bank write bursts
system.mem_ctrls0.numRdRetry                      590                       # Number of times read queue was full causing retry
system.mem_ctrls0.numWrRetry                      358                       # Number of times write queue was full causing retry
system.mem_ctrls0.totGap                  59792533500                       # Total gap between requests
system.mem_ctrls0.readPktSize::0                    0                       # Read request sizes (log2)
system.mem_ctrls0.readPktSize::1                    0                       # Read request sizes (log2)
system.mem_ctrls0.readPktSize::2                    0                       # Read request sizes (log2)
system.mem_ctrls0.readPktSize::3                    0                       # Read request sizes (log2)
system.mem_ctrls0.readPktSize::4                    0                       # Read request sizes (log2)
system.mem_ctrls0.readPktSize::5                    0                       # Read request sizes (log2)
system.mem_ctrls0.readPktSize::6               219291                       # Read request sizes (log2)
system.mem_ctrls0.writePktSize::0                   0                       # Write request sizes (log2)
system.mem_ctrls0.writePktSize::1                   0                       # Write request sizes (log2)
system.mem_ctrls0.writePktSize::2                   0                       # Write request sizes (log2)
system.mem_ctrls0.writePktSize::3                   0                       # Write request sizes (log2)
system.mem_ctrls0.writePktSize::4                   0                       # Write request sizes (log2)
system.mem_ctrls0.writePktSize::5                   0                       # Write request sizes (log2)
system.mem_ctrls0.writePktSize::6               62620                       # Write request sizes (log2)
system.mem_ctrls0.rdQLenPdf::0                 160264                       # What read queue length does an incoming req see
system.mem_ctrls0.rdQLenPdf::1                  42486                       # What read queue length does an incoming req see
system.mem_ctrls0.rdQLenPdf::2                  11604                       # What read queue length does an incoming req see
system.mem_ctrls0.rdQLenPdf::3                   2669                       # What read queue length does an incoming req see
system.mem_ctrls0.rdQLenPdf::4                    604                       # What read queue length does an incoming req see
system.mem_ctrls0.rdQLenPdf::5                    137                       # What read queue length does an incoming req see
system.mem_ctrls0.rdQLenPdf::6                     69                       # What read queue length does an incoming req see
system.mem_ctrls0.rdQLenPdf::7                     62                       # What read queue length does an incoming req see
system.mem_ctrls0.rdQLenPdf::8                     72                       # What read queue length does an incoming req see
system.mem_ctrls0.rdQLenPdf::9                     56                       # What read queue length does an incoming req see
system.mem_ctrls0.rdQLenPdf::10                    42                       # What read queue length does an incoming req see
system.mem_ctrls0.rdQLenPdf::11                    42                       # What read queue length does an incoming req see
system.mem_ctrls0.rdQLenPdf::12                    48                       # What read queue length does an incoming req see
system.mem_ctrls0.rdQLenPdf::13                    41                       # What read queue length does an incoming req see
system.mem_ctrls0.rdQLenPdf::14                    28                       # What read queue length does an incoming req see
system.mem_ctrls0.rdQLenPdf::15                    29                       # What read queue length does an incoming req see
system.mem_ctrls0.rdQLenPdf::16                    24                       # What read queue length does an incoming req see
system.mem_ctrls0.rdQLenPdf::17                    20                       # What read queue length does an incoming req see
system.mem_ctrls0.rdQLenPdf::18                    25                       # What read queue length does an incoming req see
system.mem_ctrls0.rdQLenPdf::19                    27                       # What read queue length does an incoming req see
system.mem_ctrls0.rdQLenPdf::20                    26                       # What read queue length does an incoming req see
system.mem_ctrls0.rdQLenPdf::21                    24                       # What read queue length does an incoming req see
system.mem_ctrls0.rdQLenPdf::22                    14                       # What read queue length does an incoming req see
system.mem_ctrls0.rdQLenPdf::23                    15                       # What read queue length does an incoming req see
system.mem_ctrls0.rdQLenPdf::24                    13                       # What read queue length does an incoming req see
system.mem_ctrls0.rdQLenPdf::25                    27                       # What read queue length does an incoming req see
system.mem_ctrls0.rdQLenPdf::26                    24                       # What read queue length does an incoming req see
system.mem_ctrls0.rdQLenPdf::27                    17                       # What read queue length does an incoming req see
system.mem_ctrls0.rdQLenPdf::28                    22                       # What read queue length does an incoming req see
system.mem_ctrls0.rdQLenPdf::29                    18                       # What read queue length does an incoming req see
system.mem_ctrls0.rdQLenPdf::30                    45                       # What read queue length does an incoming req see
system.mem_ctrls0.rdQLenPdf::31                   669                       # What read queue length does an incoming req see
system.mem_ctrls0.wrQLenPdf::0                  12196                       # What write queue length does an incoming req see
system.mem_ctrls0.wrQLenPdf::1                  12405                       # What write queue length does an incoming req see
system.mem_ctrls0.wrQLenPdf::2                  12395                       # What write queue length does an incoming req see
system.mem_ctrls0.wrQLenPdf::3                  12355                       # What write queue length does an incoming req see
system.mem_ctrls0.wrQLenPdf::4                  12333                       # What write queue length does an incoming req see
system.mem_ctrls0.wrQLenPdf::5                    247                       # What write queue length does an incoming req see
system.mem_ctrls0.wrQLenPdf::6                    164                       # What write queue length does an incoming req see
system.mem_ctrls0.wrQLenPdf::7                    525                       # What write queue length does an incoming req see
system.mem_ctrls0.bytesPerActivate::samples        86038                       # Bytes accessed per row activation
system.mem_ctrls0.bytesPerActivate::mean   209.673307                       # Bytes accessed per row activation
system.mem_ctrls0.bytesPerActivate::gmean   135.217015                       # Bytes accessed per row activation
system.mem_ctrls0.bytesPerActivate::stdev   238.534049                       # Bytes accessed per row activation
system.mem_ctrls0.bytesPerActivate::0-127        41917     48.72%     48.72% # Bytes accessed per row activation
system.mem_ctrls0.bytesPerActivate::128-255        17961     20.88%     69.59% # Bytes accessed per row activation
system.mem_ctrls0.bytesPerActivate::256-383        14950     17.38%     86.97% # Bytes accessed per row activation
system.mem_ctrls0.bytesPerActivate::384-511         2540      2.95%     89.92% # Bytes accessed per row activation
system.mem_ctrls0.bytesPerActivate::512-639         1815      2.11%     92.03% # Bytes accessed per row activation
system.mem_ctrls0.bytesPerActivate::640-767         1270      1.48%     93.51% # Bytes accessed per row activation
system.mem_ctrls0.bytesPerActivate::768-895         1093      1.27%     94.78% # Bytes accessed per row activation
system.mem_ctrls0.bytesPerActivate::896-1023          885      1.03%     95.81% # Bytes accessed per row activation
system.mem_ctrls0.bytesPerActivate::1024-1151         3607      4.19%    100.00% # Bytes accessed per row activation
system.mem_ctrls0.bytesPerActivate::total        86038                       # Bytes accessed per row activation
system.mem_ctrls0.rdPerTurnAround::samples        12240                       # Reads before turning the bus around for writes
system.mem_ctrls0.rdPerTurnAround::mean     17.757435                       # Reads before turning the bus around for writes
system.mem_ctrls0.rdPerTurnAround::stdev    75.841325                       # Reads before turning the bus around for writes
system.mem_ctrls0.rdPerTurnAround::0-127        11869     96.97%     96.97% # Reads before turning the bus around for writes
system.mem_ctrls0.rdPerTurnAround::128-255          205      1.67%     98.64% # Reads before turning the bus around for writes
system.mem_ctrls0.rdPerTurnAround::256-383           71      0.58%     99.22% # Reads before turning the bus around for writes
system.mem_ctrls0.rdPerTurnAround::384-511           49      0.40%     99.62% # Reads before turning the bus around for writes
system.mem_ctrls0.rdPerTurnAround::512-639           22      0.18%     99.80% # Reads before turning the bus around for writes
system.mem_ctrls0.rdPerTurnAround::640-767           12      0.10%     99.90% # Reads before turning the bus around for writes
system.mem_ctrls0.rdPerTurnAround::768-895            1      0.01%     99.91% # Reads before turning the bus around for writes
system.mem_ctrls0.rdPerTurnAround::896-1023            3      0.02%     99.93% # Reads before turning the bus around for writes
system.mem_ctrls0.rdPerTurnAround::1024-1151            2      0.02%     99.95% # Reads before turning the bus around for writes
system.mem_ctrls0.rdPerTurnAround::1152-1279            1      0.01%     99.96% # Reads before turning the bus around for writes
system.mem_ctrls0.rdPerTurnAround::1536-1663            2      0.02%     99.98% # Reads before turning the bus around for writes
system.mem_ctrls0.rdPerTurnAround::1664-1791            1      0.01%     99.98% # Reads before turning the bus around for writes
system.mem_ctrls0.rdPerTurnAround::1792-1919            1      0.01%     99.99% # Reads before turning the bus around for writes
system.mem_ctrls0.rdPerTurnAround::3968-4095            1      0.01%    100.00% # Reads before turning the bus around for writes
system.mem_ctrls0.rdPerTurnAround::total        12240                       # Reads before turning the bus around for writes
system.mem_ctrls0.wrPerTurnAround::samples        12240                       # Writes before turning the bus around for reads
system.mem_ctrls0.wrPerTurnAround::mean      5.115931                       # Writes before turning the bus around for reads
system.mem_ctrls0.wrPerTurnAround::gmean     5.080352                       # Writes before turning the bus around for reads
system.mem_ctrls0.wrPerTurnAround::stdev     0.861544                       # Writes before turning the bus around for reads
system.mem_ctrls0.wrPerTurnAround::4-7          12129     99.09%     99.09% # Writes before turning the bus around for reads
system.mem_ctrls0.wrPerTurnAround::8-11            40      0.33%     99.42% # Writes before turning the bus around for reads
system.mem_ctrls0.wrPerTurnAround::12-15           15      0.12%     99.54% # Writes before turning the bus around for reads
system.mem_ctrls0.wrPerTurnAround::16-19           56      0.46%    100.00% # Writes before turning the bus around for reads
system.mem_ctrls0.wrPerTurnAround::total        12240                       # Writes before turning the bus around for reads
system.mem_ctrls0.totQLat                  3013196722                       # Total ticks spent queuing
system.mem_ctrls0.totMemAccLat             7124377972                       # Total ticks spent from burst creation until serviced by the DRAM
system.mem_ctrls0.totBusLat                1096315000                       # Total ticks spent in databus transfers
system.mem_ctrls0.avgQLat                    13742.39                       # Average queueing delay per DRAM burst
system.mem_ctrls0.avgBusLat                   5000.00                       # Average bus latency per DRAM burst
system.mem_ctrls0.avgMemAccLat               32492.39                       # Average memory access latency per DRAM burst
system.mem_ctrls0.avgRdBW                      234.69                       # Average DRAM read bandwidth in MiByte/s
system.mem_ctrls0.avgWrBW                       67.03                       # Average achieved write bandwidth in MiByte/s
system.mem_ctrls0.avgRdBWSys                   234.72                       # Average system read bandwidth in MiByte/s
system.mem_ctrls0.avgWrBWSys                    67.03                       # Average system write bandwidth in MiByte/s
system.mem_ctrls0.peakBW                     12800.00                       # Theoretical peak bandwidth in MiByte/s
system.mem_ctrls0.busUtil                        2.36                       # Data bus utilization in percentage
system.mem_ctrls0.busUtilRead                    1.83                       # Data bus utilization in percentage for reads
system.mem_ctrls0.busUtilWrite                   0.52                       # Data bus utilization in percentage for writes
system.mem_ctrls0.avgRdQLen                      1.12                       # Average read queue length when enqueuing
system.mem_ctrls0.avgWrQLen                      2.87                       # Average write queue length when enqueuing
system.mem_ctrls0.readRowHits                  157471                       # Number of row buffer hits during reads
system.mem_ctrls0.writeRowHits                  38367                       # Number of row buffer hits during writes
system.mem_ctrls0.readRowHitRate                71.82                       # Row buffer hit rate for reads
system.mem_ctrls0.writeRowHitRate               61.27                       # Row buffer hit rate for writes
system.mem_ctrls0.avgGap                    212097.20                       # Average gap between requests
system.mem_ctrls0.pageHitRate                   69.47                       # Row buffer hit rate, read and write combined
system.mem_ctrls0.memoryStateTime::IDLE   10793609500                       # Time in different power states
system.mem_ctrls0.memoryStateTime::REF     1996540000                       # Time in different power states
system.mem_ctrls0.memoryStateTime::PRE_PDN            0                       # Time in different power states
system.mem_ctrls0.memoryStateTime::ACT    47000738000                       # Time in different power states
system.mem_ctrls0.memoryStateTime::ACT_PDN            0                       # Time in different power states
system.mem_ctrls0.actEnergy::0              328897800                       # Energy for activate commands per rank (pJ)
system.mem_ctrls0.actEnergy::1              321534360                       # Energy for activate commands per rank (pJ)
system.mem_ctrls0.preEnergy::0              179458125                       # Energy for precharge commands per rank (pJ)
system.mem_ctrls0.preEnergy::1              175440375                       # Energy for precharge commands per rank (pJ)
system.mem_ctrls0.readEnergy::0             862508400                       # Energy for read commands per rank (pJ)
system.mem_ctrls0.readEnergy::1             847657200                       # Energy for read commands per rank (pJ)
system.mem_ctrls0.writeEnergy::0            205694640                       # Energy for write commands per rank (pJ)
system.mem_ctrls0.writeEnergy::1            200076480                       # Energy for write commands per rank (pJ)
system.mem_ctrls0.refreshEnergy::0         3905232240                       # Energy for refresh commands per rank (pJ)
system.mem_ctrls0.refreshEnergy::1         3905232240                       # Energy for refresh commands per rank (pJ)
system.mem_ctrls0.actBackEnergy::0        25647844545                       # Energy for active background per rank (pJ)
system.mem_ctrls0.actBackEnergy::1        24927476265                       # Energy for active background per rank (pJ)
system.mem_ctrls0.preBackEnergy::0        13376415000                       # Energy for precharge background per rank (pJ)
system.mem_ctrls0.preBackEnergy::1        14008317000                       # Energy for precharge background per rank (pJ)
system.mem_ctrls0.totalEnergy::0          44506050750                       # Total energy per rank (pJ)
system.mem_ctrls0.totalEnergy::1          44385733920                       # Total energy per rank (pJ)
system.mem_ctrls0.averagePower::0          744.361940                       # Core power per rank (mW)
system.mem_ctrls0.averagePower::1          742.349645                       # Core power per rank (mW)
system.mem_ctrls1.bytes_read::ruby.dir_cntrl1     13851264                       # Number of bytes read from this memory
system.mem_ctrls1.bytes_read::total          13851264                       # Number of bytes read from this memory
system.mem_ctrls1.bytes_written::ruby.dir_cntrl1      3840704                       # Number of bytes written to this memory
system.mem_ctrls1.bytes_written::total        3840704                       # Number of bytes written to this memory
system.mem_ctrls1.num_reads::ruby.dir_cntrl1       216426                       # Number of read requests responded to by this memory
system.mem_ctrls1.num_reads::total             216426                       # Number of read requests responded to by this memory
system.mem_ctrls1.num_writes::ruby.dir_cntrl1        60011                       # Number of write requests responded to by this memory
system.mem_ctrls1.num_writes::total             60011                       # Number of write requests responded to by this memory
system.mem_ctrls1.bw_read::ruby.dir_cntrl1    231654347                       # Total read bandwidth from this memory (bytes/s)
system.mem_ctrls1.bw_read::total            231654347                       # Total read bandwidth from this memory (bytes/s)
system.mem_ctrls1.bw_write::ruby.dir_cntrl1     64233544                       # Write bandwidth from this memory (bytes/s)
system.mem_ctrls1.bw_write::total            64233544                       # Write bandwidth from this memory (bytes/s)
system.mem_ctrls1.bw_total::ruby.dir_cntrl1    295887891                       # Total bandwidth to/from this memory (bytes/s)
system.mem_ctrls1.bw_total::total           295887891                       # Total bandwidth to/from this memory (bytes/s)
system.mem_ctrls1.readReqs                     216426                       # Number of read requests accepted
system.mem_ctrls1.writeReqs                     60011                       # Number of write requests accepted
system.mem_ctrls1.readBursts                   216426                       # Number of DRAM read bursts, including those serviced by the write queue
system.mem_ctrls1.writeBursts                   60011                       # Number of DRAM write bursts, including those merged in the write queue
system.mem_ctrls1.bytesReadDRAM              13849984                       # Total number of bytes read from DRAM
system.mem_ctrls1.bytesReadWrQ                   1280                       # Total number of bytes read from write queue
system.mem_ctrls1.bytesWritten                3840448                       # Total number of bytes written to DRAM
system.mem_ctrls1.bytesReadSys               13851264                       # Total read bytes from the system interface side
system.mem_ctrls1.bytesWrittenSys             3840704                       # Total written bytes from the system interface side
system.mem_ctrls1.servicedByWrQ                    20                       # Number of DRAM read bursts serviced by the write queue
system.mem_ctrls1.mergedWrBursts                    0                       # Number of DRAM write bursts merged with an existing one
system.mem_ctrls1.neitherReadNorWriteReqs            0                       # Number of requests that are neither read nor write
system.mem_ctrls1.perBankRdBursts::0            13290                       # Per bank write bursts
system.mem_ctrls1.perBankRdBursts::1            13819                       # Per bank write bursts
system.mem_ctrls1.perBankRdBursts::2            13485                       # Per bank write bursts
system.mem_ctrls1.perBankRdBursts::3            13893                       # Per bank write bursts
system.mem_ctrls1.perBankRdBursts::4            13534                       # Per bank write bursts
system.mem_ctrls1.perBankRdBursts::5            14119                       # Per bank write bursts
system.mem_ctrls1.perBankRdBursts::6            13535                       # Per bank write bursts
system.mem_ctrls1.perBankRdBursts::7            13510                       # Per bank write bursts
system.mem_ctrls1.perBankRdBursts::8            13401                       # Per bank write bursts
system.mem_ctrls1.perBankRdBursts::9            13712                       # Per bank write bursts
system.mem_ctrls1.perBankRdBursts::10           13419                       # Per bank write bursts
system.mem_ctrls1.perBankRdBursts::11           13659                       # Per bank write bursts
system.mem_ctrls1.perBankRdBursts::12           13210                       # Per bank write bursts
system.mem_ctrls1.perBankRdBursts::13           13105                       # Per bank write bursts
system.mem_ctrls1.perBankRdBursts::14           13294                       # Per bank write bursts
system.mem_ctrls1.perBankRdBursts::15           13421                       # Per bank write bursts
system.mem_ctrls1.perBankWrBursts::0             3686                       # Per bank write bursts
system.mem_ctrls1.perBankWrBursts::1             3780                       # Per bank write bursts
system.mem_ctrls1.perBankWrBursts::2             3765                       # Per bank write bursts
system.mem_ctrls1.perBankWrBursts::3             3979                       # Per bank write bursts
system.mem_ctrls1.perBankWrBursts::4             3771                       # Per bank write bursts
system.mem_ctrls1.perBankWrBursts::5             3923                       # Per bank write bursts
system.mem_ctrls1.perBankWrBursts::6             3803                       # Per bank write bursts
system.mem_ctrls1.perBankWrBursts::7             3779                       # Per bank write bursts
system.mem_ctrls1.perBankWrBursts::8             3663                       # Per bank write bursts
system.mem_ctrls1.perBankWrBursts::9             3898                       # Per bank write bursts
system.mem_ctrls1.perBankWrBursts::10            3678                       # Per bank write bursts
system.mem_ctrls1.perBankWrBursts::11            3611                       # Per bank write bursts
system.mem_ctrls1.perBankWrBursts::12            3566                       # Per bank write bursts
system.mem_ctrls1.perBankWrBursts::13            3595                       # Per bank write bursts
system.mem_ctrls1.perBankWrBursts::14            3794                       # Per bank write bursts
system.mem_ctrls1.perBankWrBursts::15            3716                       # Per bank write bursts
system.mem_ctrls1.numRdRetry                      535                       # Number of times read queue was full causing retry
system.mem_ctrls1.numWrRetry                      335                       # Number of times write queue was full causing retry
system.mem_ctrls1.totGap                  59792052500                       # Total gap between requests
system.mem_ctrls1.readPktSize::0                    0                       # Read request sizes (log2)
system.mem_ctrls1.readPktSize::1                    0                       # Read request sizes (log2)
system.mem_ctrls1.readPktSize::2                    0                       # Read request sizes (log2)
system.mem_ctrls1.readPktSize::3                    0                       # Read request sizes (log2)
system.mem_ctrls1.readPktSize::4                    0                       # Read request sizes (log2)
system.mem_ctrls1.readPktSize::5                    0                       # Read request sizes (log2)
system.mem_ctrls1.readPktSize::6               216426                       # Read request sizes (log2)
system.mem_ctrls1.writePktSize::0                   0                       # Write request sizes (log2)
system.mem_ctrls1.writePktSize::1                   0                       # Write request sizes (log2)
system.mem_ctrls1.writePktSize::2                   0                       # Write request sizes (log2)
system.mem_ctrls1.writePktSize::3                   0                       # Write request sizes (log2)
system.mem_ctrls1.writePktSize::4                   0                       # Write request sizes (log2)
system.mem_ctrls1.writePktSize::5                   0                       # Write request sizes (log2)
system.mem_ctrls1.writePktSize::6               60011                       # Write request sizes (log2)
system.mem_ctrls1.rdQLenPdf::0                 158204                       # What read queue length does an incoming req see
system.mem_ctrls1.rdQLenPdf::1                  42957                       # What read queue length does an incoming req see
system.mem_ctrls1.rdQLenPdf::2                  10895                       # What read queue length does an incoming req see
system.mem_ctrls1.rdQLenPdf::3                   2399                       # What read queue length does an incoming req see
system.mem_ctrls1.rdQLenPdf::4                    500                       # What read queue length does an incoming req see
system.mem_ctrls1.rdQLenPdf::5                    111                       # What read queue length does an incoming req see
system.mem_ctrls1.rdQLenPdf::6                     41                       # What read queue length does an incoming req see
system.mem_ctrls1.rdQLenPdf::7                     43                       # What read queue length does an incoming req see
system.mem_ctrls1.rdQLenPdf::8                     29                       # What read queue length does an incoming req see
system.mem_ctrls1.rdQLenPdf::9                     34                       # What read queue length does an incoming req see
system.mem_ctrls1.rdQLenPdf::10                    36                       # What read queue length does an incoming req see
system.mem_ctrls1.rdQLenPdf::11                    36                       # What read queue length does an incoming req see
system.mem_ctrls1.rdQLenPdf::12                    30                       # What read queue length does an incoming req see
system.mem_ctrls1.rdQLenPdf::13                    31                       # What read queue length does an incoming req see
system.mem_ctrls1.rdQLenPdf::14                    30                       # What read queue length does an incoming req see
system.mem_ctrls1.rdQLenPdf::15                    26                       # What read queue length does an incoming req see
system.mem_ctrls1.rdQLenPdf::16                    31                       # What read queue length does an incoming req see
system.mem_ctrls1.rdQLenPdf::17                    31                       # What read queue length does an incoming req see
system.mem_ctrls1.rdQLenPdf::18                    26                       # What read queue length does an incoming req see
system.mem_ctrls1.rdQLenPdf::19                    30                       # What read queue length does an incoming req see
system.mem_ctrls1.rdQLenPdf::20                    27                       # What read queue length does an incoming req see
system.mem_ctrls1.rdQLenPdf::21                    26                       # What read queue length does an incoming req see
system.mem_ctrls1.rdQLenPdf::22                    23                       # What read queue length does an incoming req see
system.mem_ctrls1.rdQLenPdf::23                    20                       # What read queue length does an incoming req see
system.mem_ctrls1.rdQLenPdf::24                    18                       # What read queue length does an incoming req see
system.mem_ctrls1.rdQLenPdf::25                    22                       # What read queue length does an incoming req see
system.mem_ctrls1.rdQLenPdf::26                    19                       # What read queue length does an incoming req see
system.mem_ctrls1.rdQLenPdf::27                    25                       # What read queue length does an incoming req see
system.mem_ctrls1.rdQLenPdf::28                    32                       # What read queue length does an incoming req see
system.mem_ctrls1.rdQLenPdf::29                    30                       # What read queue length does an incoming req see
system.mem_ctrls1.rdQLenPdf::30                    26                       # What read queue length does an incoming req see
system.mem_ctrls1.rdQLenPdf::31                   618                       # What read queue length does an incoming req see
system.mem_ctrls1.wrQLenPdf::0                  11704                       # What write queue length does an incoming req see
system.mem_ctrls1.wrQLenPdf::1                  11882                       # What write queue length does an incoming req see
system.mem_ctrls1.wrQLenPdf::2                  11875                       # What write queue length does an incoming req see
system.mem_ctrls1.wrQLenPdf::3                  11856                       # What write queue length does an incoming req see
system.mem_ctrls1.wrQLenPdf::4                  11821                       # What write queue length does an incoming req see
system.mem_ctrls1.wrQLenPdf::5                    198                       # What write queue length does an incoming req see
system.mem_ctrls1.wrQLenPdf::6                    147                       # What write queue length does an incoming req see
system.mem_ctrls1.wrQLenPdf::7                    528                       # What write queue length does an incoming req see
system.mem_ctrls1.bytesPerActivate::samples        81375                       # Bytes accessed per row activation
system.mem_ctrls1.bytesPerActivate::mean   217.388436                       # Bytes accessed per row activation
system.mem_ctrls1.bytesPerActivate::gmean   139.325698                       # Bytes accessed per row activation
system.mem_ctrls1.bytesPerActivate::stdev   245.112221                       # Bytes accessed per row activation
system.mem_ctrls1.bytesPerActivate::0-127        38325     47.10%     47.10% # Bytes accessed per row activation
system.mem_ctrls1.bytesPerActivate::128-255        17247     21.19%     68.29% # Bytes accessed per row activation
system.mem_ctrls1.bytesPerActivate::256-383        14451     17.76%     86.05% # Bytes accessed per row activation
system.mem_ctrls1.bytesPerActivate::384-511         2514      3.09%     89.14% # Bytes accessed per row activation
system.mem_ctrls1.bytesPerActivate::512-639         1846      2.27%     91.41% # Bytes accessed per row activation
system.mem_ctrls1.bytesPerActivate::640-767         1277      1.57%     92.98% # Bytes accessed per row activation
system.mem_ctrls1.bytesPerActivate::768-895         1116      1.37%     94.35% # Bytes accessed per row activation
system.mem_ctrls1.bytesPerActivate::896-1023          942      1.16%     95.51% # Bytes accessed per row activation
system.mem_ctrls1.bytesPerActivate::1024-1151         3657      4.49%    100.00% # Bytes accessed per row activation
system.mem_ctrls1.bytesPerActivate::total        81375                       # Bytes accessed per row activation
system.mem_ctrls1.rdPerTurnAround::samples        11739                       # Reads before turning the bus around for writes
system.mem_ctrls1.rdPerTurnAround::mean     18.269103                       # Reads before turning the bus around for writes
system.mem_ctrls1.rdPerTurnAround::stdev    75.343821                       # Reads before turning the bus around for writes
system.mem_ctrls1.rdPerTurnAround::0-127        11375     96.90%     96.90% # Reads before turning the bus around for writes
system.mem_ctrls1.rdPerTurnAround::128-255          181      1.54%     98.44% # Reads before turning the bus around for writes
system.mem_ctrls1.rdPerTurnAround::256-383           86      0.73%     99.17% # Reads before turning the bus around for writes
system.mem_ctrls1.rdPerTurnAround::384-511           46      0.39%     99.57% # Reads before turning the bus around for writes
system.mem_ctrls1.rdPerTurnAround::512-639           24      0.20%     99.77% # Reads before turning the bus around for writes
system.mem_ctrls1.rdPerTurnAround::640-767           15      0.13%     99.90% # Reads before turning the bus around for writes
system.mem_ctrls1.rdPerTurnAround::768-895            1      0.01%     99.91% # Reads before turning the bus around for writes
system.mem_ctrls1.rdPerTurnAround::896-1023            3      0.03%     99.93% # Reads before turning the bus around for writes
system.mem_ctrls1.rdPerTurnAround::1024-1151            1      0.01%     99.94% # Reads before turning the bus around for writes
system.mem_ctrls1.rdPerTurnAround::1152-1279            1      0.01%     99.95% # Reads before turning the bus around for writes
system.mem_ctrls1.rdPerTurnAround::1280-1407            1      0.01%     99.96% # Reads before turning the bus around for writes
system.mem_ctrls1.rdPerTurnAround::1536-1663            1      0.01%     99.97% # Reads before turning the bus around for writes
system.mem_ctrls1.rdPerTurnAround::1664-1791            2      0.02%     99.98% # Reads before turning the bus around for writes
system.mem_ctrls1.rdPerTurnAround::2048-2175            1      0.01%     99.99% # Reads before turning the bus around for writes
system.mem_ctrls1.rdPerTurnAround::2816-2943            1      0.01%    100.00% # Reads before turning the bus around for writes
system.mem_ctrls1.rdPerTurnAround::total        11739                       # Reads before turning the bus around for writes
system.mem_ctrls1.wrPerTurnAround::samples        11739                       # Writes before turning the bus around for reads
system.mem_ctrls1.wrPerTurnAround::mean      5.111764                       # Writes before turning the bus around for reads
system.mem_ctrls1.wrPerTurnAround::gmean     5.077271                       # Writes before turning the bus around for reads
system.mem_ctrls1.wrPerTurnAround::stdev     0.849432                       # Writes before turning the bus around for reads
system.mem_ctrls1.wrPerTurnAround::4-7          11641     99.17%     99.17% # Writes before turning the bus around for reads
system.mem_ctrls1.wrPerTurnAround::8-11            31      0.26%     99.43% # Writes before turning the bus around for reads
system.mem_ctrls1.wrPerTurnAround::12-15           18      0.15%     99.58% # Writes before turning the bus around for reads
system.mem_ctrls1.wrPerTurnAround::16-19           49      0.42%    100.00% # Writes before turning the bus around for reads
system.mem_ctrls1.wrPerTurnAround::total        11739                       # Writes before turning the bus around for reads
system.mem_ctrls1.totQLat                  2892604023                       # Total ticks spent queuing
system.mem_ctrls1.totMemAccLat             6950216523                       # Total ticks spent from burst creation until serviced by the DRAM
system.mem_ctrls1.totBusLat                1082030000                       # Total ticks spent in databus transfers
system.mem_ctrls1.avgQLat                    13366.56                       # Average queueing delay per DRAM burst
system.mem_ctrls1.avgBusLat                   5000.00                       # Average bus latency per DRAM burst
system.mem_ctrls1.avgMemAccLat               32116.56                       # Average memory access latency per DRAM burst
system.mem_ctrls1.avgRdBW                      231.63                       # Average DRAM read bandwidth in MiByte/s
system.mem_ctrls1.avgWrBW                       64.23                       # Average achieved write bandwidth in MiByte/s
system.mem_ctrls1.avgRdBWSys                   231.65                       # Average system read bandwidth in MiByte/s
system.mem_ctrls1.avgWrBWSys                    64.23                       # Average system write bandwidth in MiByte/s
system.mem_ctrls1.peakBW                     12800.00                       # Theoretical peak bandwidth in MiByte/s
system.mem_ctrls1.busUtil                        2.31                       # Data bus utilization in percentage
system.mem_ctrls1.busUtilRead                    1.81                       # Data bus utilization in percentage for reads
system.mem_ctrls1.busUtilWrite                   0.50                       # Data bus utilization in percentage for writes
system.mem_ctrls1.avgRdQLen                      1.11                       # Average read queue length when enqueuing
system.mem_ctrls1.avgWrQLen                      2.93                       # Average write queue length when enqueuing
system.mem_ctrls1.readRowHits                  156290                       # Number of row buffer hits during reads
system.mem_ctrls1.writeRowHits                  38745                       # Number of row buffer hits during writes
system.mem_ctrls1.readRowHitRate                72.22                       # Row buffer hit rate for reads
system.mem_ctrls1.writeRowHitRate               64.56                       # Row buffer hit rate for writes
system.mem_ctrls1.avgGap                    216295.40                       # Average gap between requests
system.mem_ctrls1.pageHitRate                   70.56                       # Row buffer hit rate, read and write combined
system.mem_ctrls1.memoryStateTime::IDLE   11221245750                       # Time in different power states
system.mem_ctrls1.memoryStateTime::REF     1996540000                       # Time in different power states
system.mem_ctrls1.memoryStateTime::PRE_PDN            0                       # Time in different power states
system.mem_ctrls1.memoryStateTime::ACT    46573743750                       # Time in different power states
system.mem_ctrls1.memoryStateTime::ACT_PDN            0                       # Time in different power states
system.mem_ctrls1.actEnergy::0              311041080                       # Energy for activate commands per rank (pJ)
system.mem_ctrls1.actEnergy::1              304153920                       # Energy for activate commands per rank (pJ)
system.mem_ctrls1.preEnergy::0              169714875                       # Energy for precharge commands per rank (pJ)
system.mem_ctrls1.preEnergy::1              165957000                       # Energy for precharge commands per rank (pJ)
system.mem_ctrls1.readEnergy::0             851627400                       # Energy for read commands per rank (pJ)
system.mem_ctrls1.readEnergy::1             836284800                       # Energy for read commands per rank (pJ)
system.mem_ctrls1.writeEnergy::0            197549280                       # Energy for write commands per rank (pJ)
system.mem_ctrls1.writeEnergy::1            191296080                       # Energy for write commands per rank (pJ)
system.mem_ctrls1.refreshEnergy::0         3905232240                       # Energy for refresh commands per rank (pJ)
system.mem_ctrls1.refreshEnergy::1         3905232240                       # Energy for refresh commands per rank (pJ)
system.mem_ctrls1.actBackEnergy::0        25340993595                       # Energy for active background per rank (pJ)
system.mem_ctrls1.actBackEnergy::1        24358619115                       # Energy for active background per rank (pJ)
system.mem_ctrls1.preBackEnergy::0        13645582500                       # Energy for precharge background per rank (pJ)
system.mem_ctrls1.preBackEnergy::1        14507314500                       # Energy for precharge background per rank (pJ)
system.mem_ctrls1.totalEnergy::0          44421740970                       # Total energy per rank (pJ)
system.mem_ctrls1.totalEnergy::1          44268857655                       # Total energy per rank (pJ)
system.mem_ctrls1.averagePower::0          742.951862                       # Core power per rank (mW)
system.mem_ctrls1.averagePower::1          740.394894                       # Core power per rank (mW)
system.mem_ctrls2.bytes_read::ruby.dir_cntrl2     13851712                       # Number of bytes read from this memory
system.mem_ctrls2.bytes_read::total          13851712                       # Number of bytes read from this memory
system.mem_ctrls2.bytes_written::ruby.dir_cntrl2      3841920                       # Number of bytes written to this memory
system.mem_ctrls2.bytes_written::total        3841920                       # Number of bytes written to this memory
system.mem_ctrls2.num_reads::ruby.dir_cntrl2       216433                       # Number of read requests responded to by this memory
system.mem_ctrls2.num_reads::total             216433                       # Number of read requests responded to by this memory
system.mem_ctrls2.num_writes::ruby.dir_cntrl2        60030                       # Number of write requests responded to by this memory
system.mem_ctrls2.num_writes::total             60030                       # Number of write requests responded to by this memory
system.mem_ctrls2.bw_read::ruby.dir_cntrl2    231661839                       # Total read bandwidth from this memory (bytes/s)
system.mem_ctrls2.bw_read::total            231661839                       # Total read bandwidth from this memory (bytes/s)
system.mem_ctrls2.bw_write::ruby.dir_cntrl2     64253881                       # Write bandwidth from this memory (bytes/s)
system.mem_ctrls2.bw_write::total            64253881                       # Write bandwidth from this memory (bytes/s)
system.mem_ctrls2.bw_total::ruby.dir_cntrl2    295915720                       # Total bandwidth to/from this memory (bytes/s)
system.mem_ctrls2.bw_total::total           295915720                       # Total bandwidth to/from this memory (bytes/s)
system.mem_ctrls2.readReqs                     216433                       # Number of read requests accepted
system.mem_ctrls2.writeReqs                     60030                       # Number of write requests accepted
system.mem_ctrls2.readBursts                   216433                       # Number of DRAM read bursts, including those serviced by the write queue
system.mem_ctrls2.writeBursts                   60030                       # Number of DRAM write bursts, including those merged in the write queue
system.mem_ctrls2.bytesReadDRAM              13850944                       # Total number of bytes read from DRAM
system.mem_ctrls2.bytesReadWrQ                    768                       # Total number of bytes read from write queue
system.mem_ctrls2.bytesWritten                3841856                       # Total number of bytes written to DRAM
system.mem_ctrls2.bytesReadSys               13851712                       # Total read bytes from the system interface side
system.mem_ctrls2.bytesWrittenSys             3841920                       # Total written bytes from the system interface side
system.mem_ctrls2.servicedByWrQ                    12                       # Number of DRAM read bursts serviced by the write queue
system.mem_ctrls2.mergedWrBursts                    0                       # Number of DRAM write bursts merged with an existing one
system.mem_ctrls2.neitherReadNorWriteReqs            0                       # Number of requests that are neither read nor write
system.mem_ctrls2.perBankRdBursts::0            13291                       # Per bank write bursts
system.mem_ctrls2.perBankRdBursts::1            13833                       # Per bank write bursts
system.mem_ctrls2.perBankRdBursts::2            13508                       # Per bank write bursts
system.mem_ctrls2.perBankRdBursts::3            13918                       # Per bank write bursts
system.mem_ctrls2.perBankRdBursts::4            13545                       # Per bank write bursts
system.mem_ctrls2.perBankRdBursts::5            14108                       # Per bank write bursts
system.mem_ctrls2.perBankRdBursts::6            13493                       # Per bank write bursts
system.mem_ctrls2.perBankRdBursts::7            13499                       # Per bank write bursts
system.mem_ctrls2.perBankRdBursts::8            13395                       # Per bank write bursts
system.mem_ctrls2.perBankRdBursts::9            13711                       # Per bank write bursts
system.mem_ctrls2.perBankRdBursts::10           13425                       # Per bank write bursts
system.mem_ctrls2.perBankRdBursts::11           13701                       # Per bank write bursts
system.mem_ctrls2.perBankRdBursts::12           13206                       # Per bank write bursts
system.mem_ctrls2.perBankRdBursts::13           13068                       # Per bank write bursts
system.mem_ctrls2.perBankRdBursts::14           13299                       # Per bank write bursts
system.mem_ctrls2.perBankRdBursts::15           13421                       # Per bank write bursts
system.mem_ctrls2.perBankWrBursts::0             3681                       # Per bank write bursts
system.mem_ctrls2.perBankWrBursts::1             3777                       # Per bank write bursts
system.mem_ctrls2.perBankWrBursts::2             3762                       # Per bank write bursts
system.mem_ctrls2.perBankWrBursts::3             3992                       # Per bank write bursts
system.mem_ctrls2.perBankWrBursts::4             3770                       # Per bank write bursts
system.mem_ctrls2.perBankWrBursts::5             3914                       # Per bank write bursts
system.mem_ctrls2.perBankWrBursts::6             3812                       # Per bank write bursts
system.mem_ctrls2.perBankWrBursts::7             3786                       # Per bank write bursts
system.mem_ctrls2.perBankWrBursts::8             3665                       # Per bank write bursts
system.mem_ctrls2.perBankWrBursts::9             3906                       # Per bank write bursts
system.mem_ctrls2.perBankWrBursts::10            3674                       # Per bank write bursts
system.mem_ctrls2.perBankWrBursts::11            3608                       # Per bank write bursts
system.mem_ctrls2.perBankWrBursts::12            3575                       # Per bank write bursts
system.mem_ctrls2.perBankWrBursts::13            3589                       # Per bank write bursts
system.mem_ctrls2.perBankWrBursts::14            3799                       # Per bank write bursts
system.mem_ctrls2.perBankWrBursts::15            3719                       # Per bank write bursts
system.mem_ctrls2.numRdRetry                      509                       # Number of times read queue was full causing retry
system.mem_ctrls2.numWrRetry                      285                       # Number of times write queue was full causing retry
system.mem_ctrls2.totGap                  59792755000                       # Total gap between requests
system.mem_ctrls2.readPktSize::0                    0                       # Read request sizes (log2)
system.mem_ctrls2.readPktSize::1                    0                       # Read request sizes (log2)
system.mem_ctrls2.readPktSize::2                    0                       # Read request sizes (log2)
system.mem_ctrls2.readPktSize::3                    0                       # Read request sizes (log2)
system.mem_ctrls2.readPktSize::4                    0                       # Read request sizes (log2)
system.mem_ctrls2.readPktSize::5                    0                       # Read request sizes (log2)
system.mem_ctrls2.readPktSize::6               216433                       # Read request sizes (log2)
system.mem_ctrls2.writePktSize::0                   0                       # Write request sizes (log2)
system.mem_ctrls2.writePktSize::1                   0                       # Write request sizes (log2)
system.mem_ctrls2.writePktSize::2                   0                       # Write request sizes (log2)
system.mem_ctrls2.writePktSize::3                   0                       # Write request sizes (log2)
system.mem_ctrls2.writePktSize::4                   0                       # Write request sizes (log2)
system.mem_ctrls2.writePktSize::5                   0                       # Write request sizes (log2)
system.mem_ctrls2.writePktSize::6               60030                       # Write request sizes (log2)
system.mem_ctrls2.rdQLenPdf::0                 158689                       # What read queue length does an incoming req see
system.mem_ctrls2.rdQLenPdf::1                  42464                       # What read queue length does an incoming req see
system.mem_ctrls2.rdQLenPdf::2                  10832                       # What read queue length does an incoming req see
system.mem_ctrls2.rdQLenPdf::3                   2410                       # What read queue length does an incoming req see
system.mem_ctrls2.rdQLenPdf::4                    571                       # What read queue length does an incoming req see
system.mem_ctrls2.rdQLenPdf::5                    131                       # What read queue length does an incoming req see
system.mem_ctrls2.rdQLenPdf::6                     52                       # What read queue length does an incoming req see
system.mem_ctrls2.rdQLenPdf::7                     45                       # What read queue length does an incoming req see
system.mem_ctrls2.rdQLenPdf::8                     60                       # What read queue length does an incoming req see
system.mem_ctrls2.rdQLenPdf::9                     48                       # What read queue length does an incoming req see
system.mem_ctrls2.rdQLenPdf::10                    36                       # What read queue length does an incoming req see
system.mem_ctrls2.rdQLenPdf::11                    33                       # What read queue length does an incoming req see
system.mem_ctrls2.rdQLenPdf::12                    36                       # What read queue length does an incoming req see
system.mem_ctrls2.rdQLenPdf::13                    32                       # What read queue length does an incoming req see
system.mem_ctrls2.rdQLenPdf::14                    29                       # What read queue length does an incoming req see
system.mem_ctrls2.rdQLenPdf::15                    29                       # What read queue length does an incoming req see
system.mem_ctrls2.rdQLenPdf::16                    40                       # What read queue length does an incoming req see
system.mem_ctrls2.rdQLenPdf::17                    35                       # What read queue length does an incoming req see
system.mem_ctrls2.rdQLenPdf::18                    32                       # What read queue length does an incoming req see
system.mem_ctrls2.rdQLenPdf::19                    30                       # What read queue length does an incoming req see
system.mem_ctrls2.rdQLenPdf::20                    34                       # What read queue length does an incoming req see
system.mem_ctrls2.rdQLenPdf::21                    28                       # What read queue length does an incoming req see
system.mem_ctrls2.rdQLenPdf::22                    25                       # What read queue length does an incoming req see
system.mem_ctrls2.rdQLenPdf::23                    25                       # What read queue length does an incoming req see
system.mem_ctrls2.rdQLenPdf::24                    21                       # What read queue length does an incoming req see
system.mem_ctrls2.rdQLenPdf::25                    23                       # What read queue length does an incoming req see
system.mem_ctrls2.rdQLenPdf::26                    17                       # What read queue length does an incoming req see
system.mem_ctrls2.rdQLenPdf::27                    19                       # What read queue length does an incoming req see
system.mem_ctrls2.rdQLenPdf::28                    14                       # What read queue length does an incoming req see
system.mem_ctrls2.rdQLenPdf::29                    11                       # What read queue length does an incoming req see
system.mem_ctrls2.rdQLenPdf::30                    18                       # What read queue length does an incoming req see
system.mem_ctrls2.rdQLenPdf::31                   552                       # What read queue length does an incoming req see
system.mem_ctrls2.wrQLenPdf::0                  11717                       # What write queue length does an incoming req see
system.mem_ctrls2.wrQLenPdf::1                  11897                       # What write queue length does an incoming req see
system.mem_ctrls2.wrQLenPdf::2                  11889                       # What write queue length does an incoming req see
system.mem_ctrls2.wrQLenPdf::3                  11862                       # What write queue length does an incoming req see
system.mem_ctrls2.wrQLenPdf::4                  11849                       # What write queue length does an incoming req see
system.mem_ctrls2.wrQLenPdf::5                    204                       # What write queue length does an incoming req see
system.mem_ctrls2.wrQLenPdf::6                    143                       # What write queue length does an incoming req see
system.mem_ctrls2.wrQLenPdf::7                    469                       # What write queue length does an incoming req see
system.mem_ctrls2.bytesPerActivate::samples        81400                       # Bytes accessed per row activation
system.mem_ctrls2.bytesPerActivate::mean   217.349189                       # Bytes accessed per row activation
system.mem_ctrls2.bytesPerActivate::gmean   139.205555                       # Bytes accessed per row activation
system.mem_ctrls2.bytesPerActivate::stdev   245.095894                       # Bytes accessed per row activation
system.mem_ctrls2.bytesPerActivate::0-127        38505     47.30%     47.30% # Bytes accessed per row activation
system.mem_ctrls2.bytesPerActivate::128-255        16888     20.75%     68.05% # Bytes accessed per row activation
system.mem_ctrls2.bytesPerActivate::256-383        14600     17.94%     85.99% # Bytes accessed per row activation
system.mem_ctrls2.bytesPerActivate::384-511         2573      3.16%     89.15% # Bytes accessed per row activation
system.mem_ctrls2.bytesPerActivate::512-639         1817      2.23%     91.38% # Bytes accessed per row activation
system.mem_ctrls2.bytesPerActivate::640-767         1299      1.60%     92.98% # Bytes accessed per row activation
system.mem_ctrls2.bytesPerActivate::768-895         1140      1.40%     94.38% # Bytes accessed per row activation
system.mem_ctrls2.bytesPerActivate::896-1023          907      1.11%     95.49% # Bytes accessed per row activation
system.mem_ctrls2.bytesPerActivate::1024-1151         3671      4.51%    100.00% # Bytes accessed per row activation
system.mem_ctrls2.bytesPerActivate::total        81400                       # Bytes accessed per row activation
system.mem_ctrls2.rdPerTurnAround::samples        11753                       # Reads before turning the bus around for writes
system.mem_ctrls2.rdPerTurnAround::mean     18.303582                       # Reads before turning the bus around for writes
system.mem_ctrls2.rdPerTurnAround::stdev    75.439695                       # Reads before turning the bus around for writes
system.mem_ctrls2.rdPerTurnAround::0-127        11392     96.93%     96.93% # Reads before turning the bus around for writes
system.mem_ctrls2.rdPerTurnAround::128-255          179      1.52%     98.45% # Reads before turning the bus around for writes
system.mem_ctrls2.rdPerTurnAround::256-383           82      0.70%     99.15% # Reads before turning the bus around for writes
system.mem_ctrls2.rdPerTurnAround::384-511           51      0.43%     99.58% # Reads before turning the bus around for writes
system.mem_ctrls2.rdPerTurnAround::512-639           26      0.22%     99.80% # Reads before turning the bus around for writes
system.mem_ctrls2.rdPerTurnAround::640-767            7      0.06%     99.86% # Reads before turning the bus around for writes
system.mem_ctrls2.rdPerTurnAround::768-895            3      0.03%     99.89% # Reads before turning the bus around for writes
system.mem_ctrls2.rdPerTurnAround::896-1023            4      0.03%     99.92% # Reads before turning the bus around for writes
system.mem_ctrls2.rdPerTurnAround::1024-1151            2      0.02%     99.94% # Reads before turning the bus around for writes
system.mem_ctrls2.rdPerTurnAround::1152-1279            1      0.01%     99.95% # Reads before turning the bus around for writes
system.mem_ctrls2.rdPerTurnAround::1408-1535            1      0.01%     99.96% # Reads before turning the bus around for writes
system.mem_ctrls2.rdPerTurnAround::1536-1663            2      0.02%     99.97% # Reads before turning the bus around for writes
system.mem_ctrls2.rdPerTurnAround::1792-1919            2      0.02%     99.99% # Reads before turning the bus around for writes
system.mem_ctrls2.rdPerTurnAround::2816-2943            1      0.01%    100.00% # Reads before turning the bus around for writes
system.mem_ctrls2.rdPerTurnAround::total        11753                       # Reads before turning the bus around for writes
system.mem_ctrls2.wrPerTurnAround::samples        11753                       # Writes before turning the bus around for reads
system.mem_ctrls2.wrPerTurnAround::mean      5.107547                       # Writes before turning the bus around for reads
system.mem_ctrls2.wrPerTurnAround::gmean     5.073403                       # Writes before turning the bus around for reads
system.mem_ctrls2.wrPerTurnAround::stdev     0.848258                       # Writes before turning the bus around for reads
system.mem_ctrls2.wrPerTurnAround::4-7          11651     99.13%     99.13% # Writes before turning the bus around for reads
system.mem_ctrls2.wrPerTurnAround::8-11            35      0.30%     99.43% # Writes before turning the bus around for reads
system.mem_ctrls2.wrPerTurnAround::12-15           13      0.11%     99.54% # Writes before turning the bus around for reads
system.mem_ctrls2.wrPerTurnAround::16-19           54      0.46%    100.00% # Writes before turning the bus around for reads
system.mem_ctrls2.wrPerTurnAround::total        11753                       # Writes before turning the bus around for reads
system.mem_ctrls2.totQLat                  2880937855                       # Total ticks spent queuing
system.mem_ctrls2.totMemAccLat             6938831605                       # Total ticks spent from burst creation until serviced by the DRAM
system.mem_ctrls2.totBusLat                1082105000                       # Total ticks spent in databus transfers
system.mem_ctrls2.avgQLat                    13311.73                       # Average queueing delay per DRAM burst
system.mem_ctrls2.avgBusLat                   5000.00                       # Average bus latency per DRAM burst
system.mem_ctrls2.avgMemAccLat               32061.73                       # Average memory access latency per DRAM burst
system.mem_ctrls2.avgRdBW                      231.65                       # Average DRAM read bandwidth in MiByte/s
system.mem_ctrls2.avgWrBW                       64.25                       # Average achieved write bandwidth in MiByte/s
system.mem_ctrls2.avgRdBWSys                   231.66                       # Average system read bandwidth in MiByte/s
system.mem_ctrls2.avgWrBWSys                    64.25                       # Average system write bandwidth in MiByte/s
system.mem_ctrls2.peakBW                     12800.00                       # Theoretical peak bandwidth in MiByte/s
system.mem_ctrls2.busUtil                        2.31                       # Data bus utilization in percentage
system.mem_ctrls2.busUtilRead                    1.81                       # Data bus utilization in percentage for reads
system.mem_ctrls2.busUtilWrite                   0.50                       # Data bus utilization in percentage for writes
system.mem_ctrls2.avgRdQLen                      1.10                       # Average read queue length when enqueuing
system.mem_ctrls2.avgWrQLen                      2.99                       # Average write queue length when enqueuing
system.mem_ctrls2.readRowHits                  156289                       # Number of row buffer hits during reads
system.mem_ctrls2.writeRowHits                  38754                       # Number of row buffer hits during writes
system.mem_ctrls2.readRowHitRate                72.22                       # Row buffer hit rate for reads
system.mem_ctrls2.writeRowHitRate               64.56                       # Row buffer hit rate for writes
system.mem_ctrls2.avgGap                    216277.60                       # Average gap between requests
system.mem_ctrls2.pageHitRate                   70.55                       # Row buffer hit rate, read and write combined
system.mem_ctrls2.memoryStateTime::IDLE   11125563750                       # Time in different power states
system.mem_ctrls2.memoryStateTime::REF     1996540000                       # Time in different power states
system.mem_ctrls2.memoryStateTime::PRE_PDN            0                       # Time in different power states
system.mem_ctrls2.memoryStateTime::ACT    46668783750                       # Time in different power states
system.mem_ctrls2.memoryStateTime::ACT_PDN            0                       # Time in different power states
system.mem_ctrls2.actEnergy::0              311449320                       # Energy for activate commands per rank (pJ)
system.mem_ctrls2.actEnergy::1              303927120                       # Energy for activate commands per rank (pJ)
system.mem_ctrls2.preEnergy::0              169937625                       # Energy for precharge commands per rank (pJ)
system.mem_ctrls2.preEnergy::1              165833250                       # Energy for precharge commands per rank (pJ)
system.mem_ctrls2.readEnergy::0             851689800                       # Energy for read commands per rank (pJ)
system.mem_ctrls2.readEnergy::1             836316000                       # Energy for read commands per rank (pJ)
system.mem_ctrls2.writeEnergy::0            197601120                       # Energy for write commands per rank (pJ)
system.mem_ctrls2.writeEnergy::1            191386800                       # Energy for write commands per rank (pJ)
system.mem_ctrls2.refreshEnergy::0         3905232240                       # Energy for refresh commands per rank (pJ)
system.mem_ctrls2.refreshEnergy::1         3905232240                       # Energy for refresh commands per rank (pJ)
system.mem_ctrls2.actBackEnergy::0        25316768880                       # Energy for active background per rank (pJ)
system.mem_ctrls2.actBackEnergy::1        24502238595                       # Energy for active background per rank (pJ)
system.mem_ctrls2.preBackEnergy::0        13666832250                       # Energy for precharge background per rank (pJ)
system.mem_ctrls2.preBackEnergy::1        14381332500                       # Energy for precharge background per rank (pJ)
system.mem_ctrls2.totalEnergy::0          44419511235                       # Total energy per rank (pJ)
system.mem_ctrls2.totalEnergy::1          44286266505                       # Total energy per rank (pJ)
system.mem_ctrls2.averagePower::0          742.914570                       # Core power per rank (mW)
system.mem_ctrls2.averagePower::1          740.686057                       # Core power per rank (mW)
system.mem_ctrls3.bytes_read::ruby.dir_cntrl3     13836992                       # Number of bytes read from this memory
system.mem_ctrls3.bytes_read::total          13836992                       # Number of bytes read from this memory
system.mem_ctrls3.bytes_written::ruby.dir_cntrl3      3838464                       # Number of bytes written to this memory
system.mem_ctrls3.bytes_written::total        3838464                       # Number of bytes written to this memory
system.mem_ctrls3.num_reads::ruby.dir_cntrl3       216203                       # Number of read requests responded to by this memory
system.mem_ctrls3.num_reads::total             216203                       # Number of read requests responded to by this memory
system.mem_ctrls3.num_writes::ruby.dir_cntrl3        59976                       # Number of write requests responded to by this memory
system.mem_ctrls3.num_writes::total             59976                       # Number of write requests responded to by this memory
system.mem_ctrls3.bw_read::ruby.dir_cntrl3    231415656                       # Total read bandwidth from this memory (bytes/s)
system.mem_ctrls3.bw_read::total            231415656                       # Total read bandwidth from this memory (bytes/s)
system.mem_ctrls3.bw_write::ruby.dir_cntrl3     64196081                       # Write bandwidth from this memory (bytes/s)
system.mem_ctrls3.bw_write::total            64196081                       # Write bandwidth from this memory (bytes/s)
system.mem_ctrls3.bw_total::ruby.dir_cntrl3    295611737                       # Total bandwidth to/from this memory (bytes/s)
system.mem_ctrls3.bw_total::total           295611737                       # Total bandwidth to/from this memory (bytes/s)
system.mem_ctrls3.readReqs                     216204                       # Number of read requests accepted
system.mem_ctrls3.writeReqs                     59976                       # Number of write requests accepted
system.mem_ctrls3.readBursts                   216204                       # Number of DRAM read bursts, including those serviced by the write queue
system.mem_ctrls3.writeBursts                   59976                       # Number of DRAM write bursts, including those merged in the write queue
system.mem_ctrls3.bytesReadDRAM              13836352                       # Total number of bytes read from DRAM
system.mem_ctrls3.bytesReadWrQ                    704                       # Total number of bytes read from write queue
system.mem_ctrls3.bytesWritten                3838336                       # Total number of bytes written to DRAM
system.mem_ctrls3.bytesReadSys               13837056                       # Total read bytes from the system interface side
system.mem_ctrls3.bytesWrittenSys             3838464                       # Total written bytes from the system interface side
system.mem_ctrls3.servicedByWrQ                    11                       # Number of DRAM read bursts serviced by the write queue
system.mem_ctrls3.mergedWrBursts                    0                       # Number of DRAM write bursts merged with an existing one
system.mem_ctrls3.neitherReadNorWriteReqs            0                       # Number of requests that are neither read nor write
system.mem_ctrls3.perBankRdBursts::0            13270                       # Per bank write bursts
system.mem_ctrls3.perBankRdBursts::1            13822                       # Per bank write bursts
system.mem_ctrls3.perBankRdBursts::2            13450                       # Per bank write bursts
system.mem_ctrls3.perBankRdBursts::3            13898                       # Per bank write bursts
system.mem_ctrls3.perBankRdBursts::4            13490                       # Per bank write bursts
system.mem_ctrls3.perBankRdBursts::5            14085                       # Per bank write bursts
system.mem_ctrls3.perBankRdBursts::6            13512                       # Per bank write bursts
system.mem_ctrls3.perBankRdBursts::7            13491                       # Per bank write bursts
system.mem_ctrls3.perBankRdBursts::8            13398                       # Per bank write bursts
system.mem_ctrls3.perBankRdBursts::9            13703                       # Per bank write bursts
system.mem_ctrls3.perBankRdBursts::10           13441                       # Per bank write bursts
system.mem_ctrls3.perBankRdBursts::11           13659                       # Per bank write bursts
system.mem_ctrls3.perBankRdBursts::12           13200                       # Per bank write bursts
system.mem_ctrls3.perBankRdBursts::13           13061                       # Per bank write bursts
system.mem_ctrls3.perBankRdBursts::14           13312                       # Per bank write bursts
system.mem_ctrls3.perBankRdBursts::15           13401                       # Per bank write bursts
system.mem_ctrls3.perBankWrBursts::0             3685                       # Per bank write bursts
system.mem_ctrls3.perBankWrBursts::1             3769                       # Per bank write bursts
system.mem_ctrls3.perBankWrBursts::2             3752                       # Per bank write bursts
system.mem_ctrls3.perBankWrBursts::3             3975                       # Per bank write bursts
system.mem_ctrls3.perBankWrBursts::4             3768                       # Per bank write bursts
system.mem_ctrls3.perBankWrBursts::5             3909                       # Per bank write bursts
system.mem_ctrls3.perBankWrBursts::6             3808                       # Per bank write bursts
system.mem_ctrls3.perBankWrBursts::7             3773                       # Per bank write bursts
system.mem_ctrls3.perBankWrBursts::8             3662                       # Per bank write bursts
system.mem_ctrls3.perBankWrBursts::9             3908                       # Per bank write bursts
system.mem_ctrls3.perBankWrBursts::10            3672                       # Per bank write bursts
system.mem_ctrls3.perBankWrBursts::11            3622                       # Per bank write bursts
system.mem_ctrls3.perBankWrBursts::12            3573                       # Per bank write bursts
system.mem_ctrls3.perBankWrBursts::13            3595                       # Per bank write bursts
system.mem_ctrls3.perBankWrBursts::14            3795                       # Per bank write bursts
system.mem_ctrls3.perBankWrBursts::15            3708                       # Per bank write bursts
system.mem_ctrls3.numRdRetry                      500                       # Number of times read queue was full causing retry
system.mem_ctrls3.numWrRetry                      296                       # Number of times write queue was full causing retry
system.mem_ctrls3.totGap                  59792062500                       # Total gap between requests
system.mem_ctrls3.readPktSize::0                    0                       # Read request sizes (log2)
system.mem_ctrls3.readPktSize::1                    0                       # Read request sizes (log2)
system.mem_ctrls3.readPktSize::2                    0                       # Read request sizes (log2)
system.mem_ctrls3.readPktSize::3                    0                       # Read request sizes (log2)
system.mem_ctrls3.readPktSize::4                    0                       # Read request sizes (log2)
[...]
system.ruby.L2Cache_Controller.IS.Mem_Data::total        13542                      
system.ruby.L2Cache_Controller.IM.Mem_Data |        6009      3.16%      3.16% |        5933      3.12%      6.28% |        5941      3.12%      9.40% |        5950      3.13%     12.53% |        5948      3.13%     15.66% |        5943      3.12%     18.78% |        5940      3.12%     21.91% |        5927      3.12%     25.02% |        5949      3.13%     28.15% |        5944      3.13%     31.27% |        5929      3.12%     34.39% |        5949      3.13%     37.52% |        5939      3.12%     40.64% |        5934      3.12%     43.76% |        5932      3.12%     46.88% |        5932      3.12%     50.00% |        5946      3.13%     53.13% |        5946      3.13%     56.25% |        5947      3.13%     59.38% |        5937      3.12%     62.50% |        5943      3.12%     65.62% |        5952      3.13%     68.75% |        5932      3.12%     71.87% |        5940      3.12%     75.00% |        5947      3.13%     78.12% |        5943      3.12%     81.25% |        5953      3.13%     84.38% |        5943      3.12%     87.50% |        5941      3.12%     90.63% |        5946      3.13%     93.75% |        5954      3.13%     96.88% |        5931      3.12%    100.00%
system.ruby.L2Cache_Controller.IM.Mem_Data::total       190200                      
system.ruby.L2Cache_Controller.SS_MB.Exclusive_Unblock |         208     80.93%     80.93% |           6      2.33%     83.27% |           3      1.17%     84.44% |           6      2.33%     86.77% |           0      0.00%     86.77% |           1      0.39%     87.16% |           1      0.39%     87.55% |           0      0.00%     87.55% |           0      0.00%     87.55% |           1      0.39%     87.94% |           0      0.00%     87.94% |           0      0.00%     87.94% |           5      1.95%     89.88% |           0      0.00%     89.88% |           2      0.78%     90.66% |           1      0.39%     91.05% |           0      0.00%     91.05% |           0      0.00%     91.05% |          10      3.89%     94.94% |           2      0.78%     95.72% |           0      0.00%     95.72% |           0      0.00%     95.72% |           0      0.00%     95.72% |           0      0.00%     95.72% |           1      0.39%     96.11% |           0      0.00%     96.11% |           2      0.78%     96.89% |           1      0.39%     97.28% |           4      1.56%     98.83% |           1      0.39%     99.22% |           1      0.39%     99.61% |           1      0.39%    100.00%
system.ruby.L2Cache_Controller.SS_MB.Exclusive_Unblock::total          257                      
system.ruby.L2Cache_Controller.MT_MB.L1_GETS |           0      0.00%      0.00% |           0      0.00%      0.00% |           0      0.00%      0.00% |           0      0.00%      0.00% |           0      0.00%      0.00% |           0      0.00%      0.00% |           0      0.00%      0.00% |           0      0.00%      0.00% |           0      0.00%      0.00% |           0      0.00%      0.00% |           0      0.00%      0.00% |           0      0.00%      0.00% |           0      0.00%      0.00% |           0      0.00%      0.00% |           0      0.00%      0.00% |           0      0.00%      0.00% |           0      0.00%      0.00% |           2     50.00%     50.00% |           2     50.00%    100.00% |           0      0.00%    100.00% |           0      0.00%    100.00% |           0      0.00%    100.00% |           0      0.00%    100.00% |           0      0.00%    100.00% |           0      0.00%    100.00% |           0      0.00%    100.00% |           0      0.00%    100.00% |           0      0.00%    100.00% |           0      0.00%    100.00% |           0      0.00%    100.00% |           0      0.00%    100.00% |           0      0.00%    100.00%
system.ruby.L2Cache_Controller.MT_MB.L1_GETS::total            4                      
system.ruby.L2Cache_Controller.MT_MB.Exclusive_Unblock |       77644      7.09%      7.09% |       33387      3.05%     10.14% |       32685      2.98%     13.12% |       32853      3.00%     16.13% |       33107      3.02%     19.15% |       32032      2.93%     22.07% |       31956      2.92%     24.99% |       31674      2.89%     27.89% |       33955      3.10%     30.99% |       32355      2.95%     33.94% |       34303      3.13%     37.07% |       33125      3.03%     40.10% |       32695      2.99%     43.08% |       31745      2.90%     45.98% |       31778      2.90%     48.89% |       31669      2.89%     51.78% |       34275      3.13%     54.91% |       32115      2.93%     57.84% |       32966      3.01%     60.85% |       32542      2.97%     63.82% |       33034      3.02%     66.84% |       32476      2.97%     69.81% |       33015      3.02%     72.82% |       32009      2.92%     75.75% |       33647      3.07%     78.82% |       32343      2.95%     81.77% |       32844      3.00%     84.77% |       31819      2.91%     87.68% |       33167      3.03%     90.71% |       31907      2.91%     93.62% |       34283      3.13%     96.75% |       35578      3.25%    100.00%
system.ruby.L2Cache_Controller.MT_MB.Exclusive_Unblock::total      1094983                      
system.ruby.L2Cache_Controller.MT_IIB.L1_GETS |           1      8.33%      8.33% |           6     50.00%     58.33% |           1      8.33%     66.67% |           0      0.00%     66.67% |           0      0.00%     66.67% |           0      0.00%     66.67% |           0      0.00%     66.67% |           0      0.00%     66.67% |           0      0.00%     66.67% |           0      0.00%     66.67% |           0      0.00%     66.67% |           0      0.00%     66.67% |           0      0.00%     66.67% |           0      0.00%     66.67% |           0      0.00%     66.67% |           0      0.00%     66.67% |           0      0.00%     66.67% |           1      8.33%     75.00% |           1      8.33%     83.33% |           2     16.67%    100.00% |           0      0.00%    100.00% |           0      0.00%    100.00% |           0      0.00%    100.00% |           0      0.00%    100.00% |           0      0.00%    100.00% |           0      0.00%    100.00% |           0      0.00%    100.00% |           0      0.00%    100.00% |           0      0.00%    100.00% |           0      0.00%    100.00% |           0      0.00%    100.00% |           0      0.00%    100.00%
system.ruby.L2Cache_Controller.MT_IIB.L1_GETS::total           12                      
system.ruby.L2Cache_Controller.MT_IIB.WB_Data |         171      7.42%      7.42% |          71      3.08%     10.50% |          69      2.99%     13.49% |          60      2.60%     16.10% |          69      2.99%     19.09% |          69      2.99%     22.08% |          69      2.99%     25.08% |          69      2.99%     28.07% |          69      2.99%     31.06% |          69      2.99%     34.06% |          67      2.91%     36.96% |          63      2.73%     39.70% |          73      3.17%     42.86% |          69      2.99%     45.86% |          69      2.99%     48.85% |          69      2.99%     51.84% |          69      2.99%     54.84% |          69      2.99%     57.83% |          70      3.04%     60.87% |          70      3.04%     63.90% |          69      2.99%     66.90% |          69      2.99%     69.89% |          71      3.08%     72.97% |          69      2.99%     75.97% |          69      2.99%     78.96% |          69      2.99%     81.95% |          69      2.99%     84.95% |          69      2.99%     87.94% |          71      3.08%     91.02% |          69      2.99%     94.01% |          69      2.99%     97.01% |          69      2.99%    100.00%
system.ruby.L2Cache_Controller.MT_IIB.WB_Data::total         2305                      
system.ruby.L2Cache_Controller.MT_IIB.WB_Data_clean |         593     96.27%     96.27% |           4      0.65%     96.92% |           3      0.49%     97.40% |           3      0.49%     97.89% |           0      0.00%     97.89% |           0      0.00%     97.89% |           0      0.00%     97.89% |           0      0.00%     97.89% |           0      0.00%     97.89% |           0      0.00%     97.89% |           0      0.00%     97.89% |           0      0.00%     97.89% |           0      0.00%     97.89% |           0      0.00%     97.89% |           1      0.16%     98.05% |           0      0.00%     98.05% |           1      0.16%     98.21% |           4      0.65%     98.86% |           4      0.65%     99.51% |           3      0.49%    100.00% |           0      0.00%    100.00% |           0      0.00%    100.00% |           0      0.00%    100.00% |           0      0.00%    100.00% |           0      0.00%    100.00% |           0      0.00%    100.00% |           0      0.00%    100.00% |           0      0.00%    100.00% |           0      0.00%    100.00% |           0      0.00%    100.00% |           0      0.00%    100.00% |           0      0.00%    100.00%
system.ruby.L2Cache_Controller.MT_IIB.WB_Data_clean::total          616                      
system.ruby.L2Cache_Controller.MT_IIB.Unblock |           0      0.00%      0.00% |           0      0.00%      0.00% |           0      0.00%      0.00% |           9     50.00%     50.00% |           0      0.00%     50.00% |           0      0.00%     50.00% |           0      0.00%     50.00% |           0      0.00%     50.00% |           0      0.00%     50.00% |           0      0.00%     50.00% |           2     11.11%     61.11% |           6     33.33%     94.44% |           0      0.00%     94.44% |           0      0.00%     94.44% |           0      0.00%     94.44% |           0      0.00%     94.44% |           0      0.00%     94.44% |           0      0.00%     94.44% |           0      0.00%     94.44% |           0      0.00%     94.44% |           0      0.00%     94.44% |           0      0.00%     94.44% |           0      0.00%     94.44% |           0      0.00%     94.44% |           0      0.00%     94.44% |           1      5.56%    100.00% |           0      0.00%    100.00% |           0      0.00%    100.00% |           0      0.00%    100.00% |           0      0.00%    100.00% |           0      0.00%    100.00% |           0      0.00%    100.00%
system.ruby.L2Cache_Controller.MT_IIB.Unblock::total           18                      
system.ruby.L2Cache_Controller.MT_IB.WB_Data |           0      0.00%      0.00% |           0      0.00%      0.00% |           0      0.00%      0.00% |           9     50.00%     50.00% |           0      0.00%     50.00% |           0      0.00%     50.00% |           0      0.00%     50.00% |           0      0.00%     50.00% |           0      0.00%     50.00% |           0      0.00%     50.00% |           2     11.11%     61.11% |           6     33.33%     94.44% |           0      0.00%     94.44% |           0      0.00%     94.44% |           0      0.00%     94.44% |           0      0.00%     94.44% |           0      0.00%     94.44% |           0      0.00%     94.44% |           0      0.00%     94.44% |           0      0.00%     94.44% |           0      0.00%     94.44% |           0      0.00%     94.44% |           0      0.00%     94.44% |           0      0.00%     94.44% |           0      0.00%     94.44% |           1      5.56%    100.00% |           0      0.00%    100.00% |           0      0.00%    100.00% |           0      0.00%    100.00% |           0      0.00%    100.00% |           0      0.00%    100.00% |           0      0.00%    100.00%
system.ruby.L2Cache_Controller.MT_IB.WB_Data::total           18                      
system.ruby.L2Cache_Controller.MT_SB.L1_GETS |           1     25.00%     25.00% |           1     25.00%     50.00% |           1     25.00%     75.00% |           1     25.00%    100.00% |           0      0.00%    100.00% |           0      0.00%    100.00% |           0      0.00%    100.00% |           0      0.00%    100.00% |           0      0.00%    100.00% |           0      0.00%    100.00% |           0      0.00%    100.00% |           0      0.00%    100.00% |           0      0.00%    100.00% |           0      0.00%    100.00% |           0      0.00%    100.00% |           0      0.00%    100.00% |           0      0.00%    100.00% |           0      0.00%    100.00% |           0      0.00%    100.00% |           0      0.00%    100.00% |           0      0.00%    100.00% |           0      0.00%    100.00% |           0      0.00%    100.00% |           0      0.00%    100.00% |           0      0.00%    100.00% |           0      0.00%    100.00% |           0      0.00%    100.00% |           0      0.00%    100.00% |           0      0.00%    100.00% |           0      0.00%    100.00% |           0      0.00%    100.00% |           0      0.00%    100.00%
system.ruby.L2Cache_Controller.MT_SB.L1_GETS::total            4                      
system.ruby.L2Cache_Controller.MT_SB.Unblock |         764     26.16%     26.16% |          75      2.57%     28.72% |          72      2.46%     31.19% |          63      2.16%     33.34% |          69      2.36%     35.71% |          69      2.36%     38.07% |          69      2.36%     40.43% |          69      2.36%     42.79% |          69      2.36%     45.16% |          69      2.36%     47.52% |          67      2.29%     49.81% |          63      2.16%     51.97% |          73      2.50%     54.47% |          69      2.36%     56.83% |          70      2.40%     59.23% |          69      2.36%     61.59% |          70      2.40%     63.98% |          73      2.50%     66.48% |          74      2.53%     69.02% |          73      2.50%     71.52% |          69      2.36%     73.88% |          69      2.36%     76.24% |          71      2.43%     78.67% |          69      2.36%     81.03% |          69      2.36%     83.40% |          69      2.36%     85.76% |          69      2.36%     88.12% |          69      2.36%     90.48% |          71      2.43%     92.91% |          69      2.36%     95.28% |          69      2.36%     97.64% |          69      2.36%    100.00%
system.ruby.L2Cache_Controller.MT_SB.Unblock::total         2921                      
system.ruby.SimicsNetworkPortInterface_Controller.MessageSend |       76203      4.27%      4.27% |      891587     50.00%     54.27% |      108027      6.06%     60.33% |      102775      5.76%     66.10% |      101188      5.67%     71.77% |      102925      5.77%     77.54% |      101244      5.68%     83.22% |      103486      5.80%     89.02% |       97293      5.46%     94.48% |       98446      5.52%    100.00% |           0      0.00%    100.00% |           0      0.00%    100.00% |           0      0.00%    100.00% |           0      0.00%    100.00% |           0      0.00%    100.00% |           0      0.00%    100.00% |           0      0.00%    100.00% |           0      0.00%    100.00% |           0      0.00%    100.00% |           0      0.00%    100.00% |           0      0.00%    100.00% |           0      0.00%    100.00% |           0      0.00%    100.00% |           0      0.00%    100.00% |           0      0.00%    100.00% |           0      0.00%    100.00% |           0      0.00%    100.00% |           0      0.00%    100.00% |           0      0.00%    100.00% |           0      0.00%    100.00% |           0      0.00%    100.00% |           0      0.00%    100.00%
system.ruby.SimicsNetworkPortInterface_Controller.MessageSend::total      1783174                      
system.ruby.SimicsNetworkPortInterface_Controller.MessageRecv |       76203      4.27%      4.27% |      891587     50.00%     54.27% |      108027      6.06%     60.33% |      102775      5.76%     66.10% |      101188      5.67%     71.77% |      102925      5.77%     77.54% |      101244      5.68%     83.22% |      103486      5.80%     89.02% |       97293      5.46%     94.48% |       98446      5.52%    100.00% |           0      0.00%    100.00% |           0      0.00%    100.00% |           0      0.00%    100.00% |           0      0.00%    100.00% |           0      0.00%    100.00% |           0      0.00%    100.00% |           0      0.00%    100.00% |           0      0.00%    100.00% |           0      0.00%    100.00% |           0      0.00%    100.00% |           0      0.00%    100.00% |           0      0.00%    100.00% |           0      0.00%    100.00% |           0      0.00%    100.00% |           0      0.00%    100.00% |           0      0.00%    100.00% |           0      0.00%    100.00% |           0      0.00%    100.00% |           0      0.00%    100.00% |           0      0.00%    100.00% |           0      0.00%    100.00% |           0      0.00%    100.00%
system.ruby.SimicsNetworkPortInterface_Controller.MessageRecv::total      1783174                      
system.ruby.SimicsNetworkPortInterface_Controller.A.MessageSend |       76203      4.27%      4.27% |      891587     50.00%     54.27% |      108027      6.06%     60.33% |      102775      5.76%     66.10% |      101188      5.67%     71.77% |      102925      5.77%     77.54% |      101244      5.68%     83.22% |      103486      5.80%     89.02% |       97293      5.46%     94.48% |       98446      5.52%    100.00% |           0      0.00%    100.00% |           0      0.00%    100.00% |           0      0.00%    100.00% |           0      0.00%    100.00% |           0      0.00%    100.00% |           0      0.00%    100.00% |           0      0.00%    100.00% |           0      0.00%    100.00% |           0      0.00%    100.00% |           0      0.00%    100.00% |           0      0.00%    100.00% |           0      0.00%    100.00% |           0      0.00%    100.00% |           0      0.00%    100.00% |           0      0.00%    100.00% |           0      0.00%    100.00% |           0      0.00%    100.00% |           0      0.00%    100.00% |           0      0.00%    100.00% |           0      0.00%    100.00% |           0      0.00%    100.00% |           0      0.00%    100.00%
system.ruby.SimicsNetworkPortInterface_Controller.A.MessageSend::total      1783174                      
system.ruby.SimicsNetworkPortInterface_Controller.A.MessageRecv |       76203      4.27%      4.27% |      891587     50.00%     54.27% |      108027      6.06%     60.33% |      102775      5.76%     66.10% |      101188      5.67%     71.77% |      102925      5.77%     77.54% |      101244      5.68%     83.22% |      103486      5.80%     89.02% |       97293      5.46%     94.48% |       98446      5.52%    100.00% |           0      0.00%    100.00% |           0      0.00%    100.00% |           0      0.00%    100.00% |           0      0.00%    100.00% |           0      0.00%    100.00% |           0      0.00%    100.00% |           0      0.00%    100.00% |           0      0.00%    100.00% |           0      0.00%    100.00% |           0      0.00%    100.00% |           0      0.00%    100.00% |           0      0.00%    100.00% |           0      0.00%    100.00% |           0      0.00%    100.00% |           0      0.00%    100.00% |           0      0.00%    100.00% |           0      0.00%    100.00% |           0      0.00%    100.00% |           0      0.00%    100.00% |           0      0.00%    100.00% |           0      0.00%    100.00% |           0      0.00%    100.00%
system.ruby.SimicsNetworkPortInterface_Controller.A.MessageRecv::total      1783174                      
system.switch_cpus.kern.inst.arm                    0                       # number of arm instructions executed
system.switch_cpus.kern.inst.quiesce                0                       # number of quiesce instructions executed

---------- End Simulation Statistics   ----------
