
---------- Begin Simulation Statistics ----------
sim_seconds                                  0.038217                       # Number of seconds simulated
sim_ticks                                 38217305000                       # Number of ticks simulated
final_tick                               5214385383500                       # Number of ticks from beginning of simulation (restored from checkpoints and never reset)
sim_freq                                 1000000000000                       # Frequency of simulated ticks
host_inst_rate                                  32184                       # Simulator instruction rate (inst/s)
host_op_rate                                    57813                       # Simulator op (including micro ops) rate (op/s)
host_tick_rate                               50173325                       # Simulator tick rate (ticks/s)
host_mem_usage                                5220836                       # Number of bytes of host memory used
host_seconds                                   761.71                       # Real time elapsed on the host
sim_insts                                    24514889                       # Number of instructions simulated
sim_ops                                      44036117                       # Number of ops (including micro ops) simulated
system.voltage_domain.voltage                       1                       # Voltage in Volts
system.clk_domain.clock                           500                       # Clock period in ticks
system.mem_ctrls0.bytes_read::ruby.dir_cntrl0      4968576                       # Number of bytes read from this memory
system.mem_ctrls0.bytes_read::total           4968576                       # Number of bytes read from this memory
system.mem_ctrls0.bytes_written::ruby.dir_cntrl0      3964672                       # Number of bytes written to this memory
system.mem_ctrls0.bytes_written::total        3964672                       # Number of bytes written to this memory
system.mem_ctrls0.num_reads::ruby.dir_cntrl0        77634                       # Number of read requests responded to by this memory
system.mem_ctrls0.num_reads::total              77634                       # Number of read requests responded to by this memory
system.mem_ctrls0.num_writes::ruby.dir_cntrl0        61948                       # Number of write requests responded to by this memory
system.mem_ctrls0.num_writes::total             61948                       # Number of write requests responded to by this memory
system.mem_ctrls0.bw_read::ruby.dir_cntrl0    130008539                       # Total read bandwidth from this memory (bytes/s)
system.mem_ctrls0.bw_read::total            130008539                       # Total read bandwidth from this memory (bytes/s)
system.mem_ctrls0.bw_write::ruby.dir_cntrl0    103740230                       # Write bandwidth from this memory (bytes/s)
system.mem_ctrls0.bw_write::total           103740230                       # Write bandwidth from this memory (bytes/s)
system.mem_ctrls0.bw_total::ruby.dir_cntrl0    233748769                       # Total bandwidth to/from this memory (bytes/s)
system.mem_ctrls0.bw_total::total           233748769                       # Total bandwidth to/from this memory (bytes/s)
system.mem_ctrls0.readReqs                      77634                       # Number of read requests accepted
system.mem_ctrls0.writeReqs                     61948                       # Number of write requests accepted
system.mem_ctrls0.readBursts                    77634                       # Number of DRAM read bursts, including those serviced by the write queue
system.mem_ctrls0.writeBursts                   61948                       # Number of DRAM write bursts, including those merged in the write queue
system.mem_ctrls0.bytesReadDRAM               4967232                       # Total number of bytes read from DRAM
system.mem_ctrls0.bytesReadWrQ                   1344                       # Total number of bytes read from write queue
system.mem_ctrls0.bytesWritten                3964544                       # Total number of bytes written to DRAM
system.mem_ctrls0.bytesReadSys                4968576                       # Total read bytes from the system interface side
system.mem_ctrls0.bytesWrittenSys             3964672                       # Total written bytes from the system interface side
system.mem_ctrls0.servicedByWrQ                    21                       # Number of DRAM read bursts serviced by the write queue
system.mem_ctrls0.mergedWrBursts                    0                       # Number of DRAM write bursts merged with an existing one
system.mem_ctrls0.neitherReadNorWriteReqs            0                       # Number of requests that are neither read nor write
system.mem_ctrls0.perBankRdBursts::0             4396                       # Per bank write bursts
system.mem_ctrls0.perBankRdBursts::1             4837                       # Per bank write bursts
system.mem_ctrls0.perBankRdBursts::2             4545                       # Per bank write bursts
system.mem_ctrls0.perBankRdBursts::3             4966                       # Per bank write bursts
system.mem_ctrls0.perBankRdBursts::4             4853                       # Per bank write bursts
system.mem_ctrls0.perBankRdBursts::5             5355                       # Per bank write bursts
system.mem_ctrls0.perBankRdBursts::6             4951                       # Per bank write bursts
system.mem_ctrls0.perBankRdBursts::7             5222                       # Per bank write bursts
system.mem_ctrls0.perBankRdBursts::8             5045                       # Per bank write bursts
system.mem_ctrls0.perBankRdBursts::9             5200                       # Per bank write bursts
system.mem_ctrls0.perBankRdBursts::10            4616                       # Per bank write bursts
system.mem_ctrls0.perBankRdBursts::11            4794                       # Per bank write bursts
system.mem_ctrls0.perBankRdBursts::12            4591                       # Per bank write bursts
system.mem_ctrls0.perBankRdBursts::13            4630                       # Per bank write bursts
system.mem_ctrls0.perBankRdBursts::14            4797                       # Per bank write bursts
system.mem_ctrls0.perBankRdBursts::15            4815                       # Per bank write bursts
system.mem_ctrls0.perBankWrBursts::0             3624                       # Per bank write bursts
system.mem_ctrls0.perBankWrBursts::1             3564                       # Per bank write bursts
system.mem_ctrls0.perBankWrBursts::2             3643                       # Per bank write bursts
system.mem_ctrls0.perBankWrBursts::3             3794                       # Per bank write bursts
system.mem_ctrls0.perBankWrBursts::4             3862                       # Per bank write bursts
system.mem_ctrls0.perBankWrBursts::5             4194                       # Per bank write bursts
system.mem_ctrls0.perBankWrBursts::6             3928                       # Per bank write bursts
system.mem_ctrls0.perBankWrBursts::7             4184                       # Per bank write bursts
system.mem_ctrls0.perBankWrBursts::8             4057                       # Per bank write bursts
system.mem_ctrls0.perBankWrBursts::9             4131                       # Per bank write bursts
system.mem_ctrls0.perBankWrBursts::10            3697                       # Per bank write bursts
system.mem_ctrls0.perBankWrBursts::11            3637                       # Per bank write bursts
system.mem_ctrls0.perBankWrBursts::12            3795                       # Per bank write bursts
system.mem_ctrls0.perBankWrBursts::13            3902                       # Per bank write bursts
system.mem_ctrls0.perBankWrBursts::14            4028                       # Per bank write bursts
system.mem_ctrls0.perBankWrBursts::15            3906                       # Per bank write bursts
system.mem_ctrls0.numRdRetry                        1                       # Number of times read queue was full causing retry
system.mem_ctrls0.numWrRetry                       99                       # Number of times write queue was full causing retry
system.mem_ctrls0.totGap                  38216823500                       # Total gap between requests
system.mem_ctrls0.readPktSize::0                    0                       # Read request sizes (log2)
system.mem_ctrls0.readPktSize::1                    0                       # Read request sizes (log2)
system.mem_ctrls0.readPktSize::2                    0                       # Read request sizes (log2)
system.mem_ctrls0.readPktSize::3                    0                       # Read request sizes (log2)
system.mem_ctrls0.readPktSize::4                    0                       # Read request sizes (log2)
system.mem_ctrls0.readPktSize::5                    0                       # Read request sizes (log2)
system.mem_ctrls0.readPktSize::6                77634                       # Read request sizes (log2)
system.mem_ctrls0.writePktSize::0                   0                       # Write request sizes (log2)
system.mem_ctrls0.writePktSize::1                   0                       # Write request sizes (log2)
system.mem_ctrls0.writePktSize::2                   0                       # Write request sizes (log2)
system.mem_ctrls0.writePktSize::3                   0                       # Write request sizes (log2)
system.mem_ctrls0.writePktSize::4                   0                       # Write request sizes (log2)
system.mem_ctrls0.writePktSize::5                   0                       # Write request sizes (log2)
system.mem_ctrls0.writePktSize::6               61948                       # Write request sizes (log2)
system.mem_ctrls0.rdQLenPdf::0                  60018                       # What read queue length does an incoming req see
system.mem_ctrls0.rdQLenPdf::1                  10699                       # What read queue length does an incoming req see
system.mem_ctrls0.rdQLenPdf::2                   3432                       # What read queue length does an incoming req see
system.mem_ctrls0.rdQLenPdf::3                   1438                       # What read queue length does an incoming req see
system.mem_ctrls0.rdQLenPdf::4                    753                       # What read queue length does an incoming req see
system.mem_ctrls0.rdQLenPdf::5                    445                       # What read queue length does an incoming req see
system.mem_ctrls0.rdQLenPdf::6                    251                       # What read queue length does an incoming req see
system.mem_ctrls0.rdQLenPdf::7                    155                       # What read queue length does an incoming req see
system.mem_ctrls0.rdQLenPdf::8                     92                       # What read queue length does an incoming req see
system.mem_ctrls0.rdQLenPdf::9                     58                       # What read queue length does an incoming req see
system.mem_ctrls0.rdQLenPdf::10                    44                       # What read queue length does an incoming req see
system.mem_ctrls0.rdQLenPdf::11                    28                       # What read queue length does an incoming req see
system.mem_ctrls0.rdQLenPdf::12                    28                       # What read queue length does an incoming req see
system.mem_ctrls0.rdQLenPdf::13                    27                       # What read queue length does an incoming req see
system.mem_ctrls0.rdQLenPdf::14                    26                       # What read queue length does an incoming req see
system.mem_ctrls0.rdQLenPdf::15                    16                       # What read queue length does an incoming req see
system.mem_ctrls0.rdQLenPdf::16                    14                       # What read queue length does an incoming req see
system.mem_ctrls0.rdQLenPdf::17                    12                       # What read queue length does an incoming req see
system.mem_ctrls0.rdQLenPdf::18                    14                       # What read queue length does an incoming req see
system.mem_ctrls0.rdQLenPdf::19                    13                       # What read queue length does an incoming req see
system.mem_ctrls0.rdQLenPdf::20                    10                       # What read queue length does an incoming req see
system.mem_ctrls0.rdQLenPdf::21                     5                       # What read queue length does an incoming req see
system.mem_ctrls0.rdQLenPdf::22                     6                       # What read queue length does an incoming req see
system.mem_ctrls0.rdQLenPdf::23                     7                       # What read queue length does an incoming req see
system.mem_ctrls0.rdQLenPdf::24                     4                       # What read queue length does an incoming req see
system.mem_ctrls0.rdQLenPdf::25                     5                       # What read queue length does an incoming req see
system.mem_ctrls0.rdQLenPdf::26                     3                       # What read queue length does an incoming req see
system.mem_ctrls0.rdQLenPdf::27                     4                       # What read queue length does an incoming req see
system.mem_ctrls0.rdQLenPdf::28                     2                       # What read queue length does an incoming req see
system.mem_ctrls0.rdQLenPdf::29                     1                       # What read queue length does an incoming req see
system.mem_ctrls0.rdQLenPdf::30                     1                       # What read queue length does an incoming req see
system.mem_ctrls0.rdQLenPdf::31                     2                       # What read queue length does an incoming req see
system.mem_ctrls0.wrQLenPdf::0                  11550                       # What write queue length does an incoming req see
system.mem_ctrls0.wrQLenPdf::1                  12696                       # What write queue length does an incoming req see
system.mem_ctrls0.wrQLenPdf::2                  12640                       # What write queue length does an incoming req see
system.mem_ctrls0.wrQLenPdf::3                  12358                       # What write queue length does an incoming req see
system.mem_ctrls0.wrQLenPdf::4                  11957                       # What write queue length does an incoming req see
system.mem_ctrls0.wrQLenPdf::5                    401                       # What write queue length does an incoming req see
system.mem_ctrls0.wrQLenPdf::6                    164                       # What write queue length does an incoming req see
system.mem_ctrls0.wrQLenPdf::7                    182                       # What write queue length does an incoming req see
system.mem_ctrls0.bytesPerActivate::samples        52726                       # Bytes accessed per row activation
system.mem_ctrls0.bytesPerActivate::mean   169.385275                       # Bytes accessed per row activation
system.mem_ctrls0.bytesPerActivate::gmean   120.282338                       # Bytes accessed per row activation
system.mem_ctrls0.bytesPerActivate::stdev   175.523268                       # Bytes accessed per row activation
system.mem_ctrls0.bytesPerActivate::0-127        27067     51.34%     51.34% # Bytes accessed per row activation
system.mem_ctrls0.bytesPerActivate::128-255        12948     24.56%     75.89% # Bytes accessed per row activation
system.mem_ctrls0.bytesPerActivate::256-383         7755     14.71%     90.60% # Bytes accessed per row activation
system.mem_ctrls0.bytesPerActivate::384-511         1918      3.64%     94.24% # Bytes accessed per row activation
system.mem_ctrls0.bytesPerActivate::512-639         1118      2.12%     96.36% # Bytes accessed per row activation
system.mem_ctrls0.bytesPerActivate::640-767          601      1.14%     97.50% # Bytes accessed per row activation
system.mem_ctrls0.bytesPerActivate::768-895          415      0.79%     98.29% # Bytes accessed per row activation
system.mem_ctrls0.bytesPerActivate::896-1023          335      0.64%     98.92% # Bytes accessed per row activation
system.mem_ctrls0.bytesPerActivate::1024-1151          569      1.08%    100.00% # Bytes accessed per row activation
system.mem_ctrls0.bytesPerActivate::total        52726                       # Bytes accessed per row activation
system.mem_ctrls0.rdPerTurnAround::samples        11562                       # Reads before turning the bus around for writes
system.mem_ctrls0.rdPerTurnAround::mean      6.712161                       # Reads before turning the bus around for writes
system.mem_ctrls0.rdPerTurnAround::stdev    37.540496                       # Reads before turning the bus around for writes
system.mem_ctrls0.rdPerTurnAround::0-127        11556     99.95%     99.95% # Reads before turning the bus around for writes
system.mem_ctrls0.rdPerTurnAround::128-255            5      0.04%     99.99% # Reads before turning the bus around for writes
system.mem_ctrls0.rdPerTurnAround::3968-4095            1      0.01%    100.00% # Reads before turning the bus around for writes
system.mem_ctrls0.rdPerTurnAround::total        11562                       # Reads before turning the bus around for writes
system.mem_ctrls0.wrPerTurnAround::samples        11562                       # Writes before turning the bus around for reads
system.mem_ctrls0.wrPerTurnAround::mean      5.357724                       # Writes before turning the bus around for reads
system.mem_ctrls0.wrPerTurnAround::gmean     5.286402                       # Writes before turning the bus around for reads
system.mem_ctrls0.wrPerTurnAround::stdev     1.079748                       # Writes before turning the bus around for reads
system.mem_ctrls0.wrPerTurnAround::4-7          11086     95.88%     95.88% # Writes before turning the bus around for reads
system.mem_ctrls0.wrPerTurnAround::8-11           407      3.52%     99.40% # Writes before turning the bus around for reads
system.mem_ctrls0.wrPerTurnAround::12-15           52      0.45%     99.85% # Writes before turning the bus around for reads
system.mem_ctrls0.wrPerTurnAround::16-19           17      0.15%    100.00% # Writes before turning the bus around for reads
system.mem_ctrls0.wrPerTurnAround::total        11562                       # Writes before turning the bus around for reads
system.mem_ctrls0.totQLat                  1843770408                       # Total ticks spent queuing
system.mem_ctrls0.totMemAccLat             3299014158                       # Total ticks spent from burst creation until serviced by the DRAM
system.mem_ctrls0.totBusLat                 388065000                       # Total ticks spent in databus transfers
system.mem_ctrls0.avgQLat                    23755.95                       # Average queueing delay per DRAM burst
system.mem_ctrls0.avgBusLat                   5000.00                       # Average bus latency per DRAM burst
system.mem_ctrls0.avgMemAccLat               42505.95                       # Average memory access latency per DRAM burst
system.mem_ctrls0.avgRdBW                      129.97                       # Average DRAM read bandwidth in MiByte/s
system.mem_ctrls0.avgWrBW                      103.74                       # Average achieved write bandwidth in MiByte/s
system.mem_ctrls0.avgRdBWSys                   130.01                       # Average system read bandwidth in MiByte/s
system.mem_ctrls0.avgWrBWSys                   103.74                       # Average system write bandwidth in MiByte/s
system.mem_ctrls0.peakBW                     12800.00                       # Theoretical peak bandwidth in MiByte/s
system.mem_ctrls0.busUtil                        1.83                       # Data bus utilization in percentage
system.mem_ctrls0.busUtilRead                    1.02                       # Data bus utilization in percentage for reads
system.mem_ctrls0.busUtilWrite                   0.81                       # Data bus utilization in percentage for writes
system.mem_ctrls0.avgRdQLen                      1.10                       # Average read queue length when enqueuing
system.mem_ctrls0.avgWrQLen                      2.85                       # Average write queue length when enqueuing
system.mem_ctrls0.readRowHits                   53410                       # Number of row buffer hits during reads
system.mem_ctrls0.writeRowHits                  33415                       # Number of row buffer hits during writes
system.mem_ctrls0.readRowHitRate                68.82                       # Row buffer hit rate for reads
system.mem_ctrls0.writeRowHitRate               53.94                       # Row buffer hit rate for writes
system.mem_ctrls0.avgGap                    273794.78                       # Average gap between requests
system.mem_ctrls0.pageHitRate                   62.21                       # Row buffer hit rate, read and write combined
system.mem_ctrls0.memoryStateTime::IDLE    8584847500                       # Time in different power states
system.mem_ctrls0.memoryStateTime::REF     1276080000                       # Time in different power states
system.mem_ctrls0.memoryStateTime::PRE_PDN            0                       # Time in different power states
system.mem_ctrls0.memoryStateTime::ACT    28354261250                       # Time in different power states
system.mem_ctrls0.memoryStateTime::ACT_PDN            0                       # Time in different power states
system.mem_ctrls0.actEnergy::0              198828000                       # Energy for activate commands per rank (pJ)
system.mem_ctrls0.actEnergy::1              199750320                       # Energy for activate commands per rank (pJ)
system.mem_ctrls0.preEnergy::0              108487500                       # Energy for precharge commands per rank (pJ)
system.mem_ctrls0.preEnergy::1              108990750                       # Energy for precharge commands per rank (pJ)
system.mem_ctrls0.readEnergy::0             305136000                       # Energy for read commands per rank (pJ)
system.mem_ctrls0.readEnergy::1             300159600                       # Energy for read commands per rank (pJ)
system.mem_ctrls0.writeEnergy::0            199525680                       # Energy for write commands per rank (pJ)
system.mem_ctrls0.writeEnergy::1            201852000                       # Energy for write commands per rank (pJ)
system.mem_ctrls0.refreshEnergy::0         2496012480                       # Energy for refresh commands per rank (pJ)
system.mem_ctrls0.refreshEnergy::1         2496012480                       # Energy for refresh commands per rank (pJ)
system.mem_ctrls0.actBackEnergy::0        15358252140                       # Energy for active background per rank (pJ)
system.mem_ctrls0.actBackEnergy::1        14944882725                       # Energy for active background per rank (pJ)
system.mem_ctrls0.preBackEnergy::0         9456954000                       # Energy for precharge background per rank (pJ)
system.mem_ctrls0.preBackEnergy::1         9819558750                       # Energy for precharge background per rank (pJ)
system.mem_ctrls0.totalEnergy::0          28123195800                       # Total energy per rank (pJ)
system.mem_ctrls0.totalEnergy::1          28071206625                       # Total energy per rank (pJ)
system.mem_ctrls0.averagePower::0          735.916970                       # Core power per rank (mW)
system.mem_ctrls0.averagePower::1          734.556537                       # Core power per rank (mW)
system.mem_ctrls1.bytes_read::ruby.dir_cntrl1      4882432                       # Number of bytes read from this memory
system.mem_ctrls1.bytes_read::total           4882432                       # Number of bytes read from this memory
system.mem_ctrls1.bytes_written::ruby.dir_cntrl1      3886400                       # Number of bytes written to this memory
system.mem_ctrls1.bytes_written::total        3886400                       # Number of bytes written to this memory
system.mem_ctrls1.num_reads::ruby.dir_cntrl1        76288                       # Number of read requests responded to by this memory
system.mem_ctrls1.num_reads::total              76288                       # Number of read requests responded to by this memory
system.mem_ctrls1.num_writes::ruby.dir_cntrl1        60725                       # Number of write requests responded to by this memory
system.mem_ctrls1.num_writes::total             60725                       # Number of write requests responded to by this memory
system.mem_ctrls1.bw_read::ruby.dir_cntrl1    127754482                       # Total read bandwidth from this memory (bytes/s)
system.mem_ctrls1.bw_read::total            127754482                       # Total read bandwidth from this memory (bytes/s)
system.mem_ctrls1.bw_write::ruby.dir_cntrl1    101692152                       # Write bandwidth from this memory (bytes/s)
system.mem_ctrls1.bw_write::total           101692152                       # Write bandwidth from this memory (bytes/s)
system.mem_ctrls1.bw_total::ruby.dir_cntrl1    229446634                       # Total bandwidth to/from this memory (bytes/s)
system.mem_ctrls1.bw_total::total           229446634                       # Total bandwidth to/from this memory (bytes/s)
system.mem_ctrls1.readReqs                      76288                       # Number of read requests accepted
system.mem_ctrls1.writeReqs                     60725                       # Number of write requests accepted
system.mem_ctrls1.readBursts                    76288                       # Number of DRAM read bursts, including those serviced by the write queue
system.mem_ctrls1.writeBursts                   60725                       # Number of DRAM write bursts, including those merged in the write queue
system.mem_ctrls1.bytesReadDRAM               4881536                       # Total number of bytes read from DRAM
system.mem_ctrls1.bytesReadWrQ                    896                       # Total number of bytes read from write queue
system.mem_ctrls1.bytesWritten                3886400                       # Total number of bytes written to DRAM
system.mem_ctrls1.bytesReadSys                4882432                       # Total read bytes from the system interface side
system.mem_ctrls1.bytesWrittenSys             3886400                       # Total written bytes from the system interface side
system.mem_ctrls1.servicedByWrQ                    14                       # Number of DRAM read bursts serviced by the write queue
system.mem_ctrls1.mergedWrBursts                    0                       # Number of DRAM write bursts merged with an existing one
system.mem_ctrls1.neitherReadNorWriteReqs            0                       # Number of requests that are neither read nor write
system.mem_ctrls1.perBankRdBursts::0             4329                       # Per bank write bursts
system.mem_ctrls1.perBankRdBursts::1             4746                       # Per bank write bursts
system.mem_ctrls1.perBankRdBursts::2             4466                       # Per bank write bursts
system.mem_ctrls1.perBankRdBursts::3             4894                       # Per bank write bursts
system.mem_ctrls1.perBankRdBursts::4             4778                       # Per bank write bursts
system.mem_ctrls1.perBankRdBursts::5             5306                       # Per bank write bursts
system.mem_ctrls1.perBankRdBursts::6             4884                       # Per bank write bursts
system.mem_ctrls1.perBankRdBursts::7             5163                       # Per bank write bursts
system.mem_ctrls1.perBankRdBursts::8             4942                       # Per bank write bursts
system.mem_ctrls1.perBankRdBursts::9             5090                       # Per bank write bursts
system.mem_ctrls1.perBankRdBursts::10            4517                       # Per bank write bursts
system.mem_ctrls1.perBankRdBursts::11            4727                       # Per bank write bursts
system.mem_ctrls1.perBankRdBursts::12            4489                       # Per bank write bursts
system.mem_ctrls1.perBankRdBursts::13            4570                       # Per bank write bursts
system.mem_ctrls1.perBankRdBursts::14            4635                       # Per bank write bursts
system.mem_ctrls1.perBankRdBursts::15            4738                       # Per bank write bursts
system.mem_ctrls1.perBankWrBursts::0             3561                       # Per bank write bursts
system.mem_ctrls1.perBankWrBursts::1             3505                       # Per bank write bursts
system.mem_ctrls1.perBankWrBursts::2             3578                       # Per bank write bursts
system.mem_ctrls1.perBankWrBursts::3             3743                       # Per bank write bursts
system.mem_ctrls1.perBankWrBursts::4             3788                       # Per bank write bursts
system.mem_ctrls1.perBankWrBursts::5             4130                       # Per bank write bursts
system.mem_ctrls1.perBankWrBursts::6             3850                       # Per bank write bursts
system.mem_ctrls1.perBankWrBursts::7             4100                       # Per bank write bursts
system.mem_ctrls1.perBankWrBursts::8             3973                       # Per bank write bursts
system.mem_ctrls1.perBankWrBursts::9             4035                       # Per bank write bursts
system.mem_ctrls1.perBankWrBursts::10            3617                       # Per bank write bursts
system.mem_ctrls1.perBankWrBursts::11            3570                       # Per bank write bursts
system.mem_ctrls1.perBankWrBursts::12            3715                       # Per bank write bursts
system.mem_ctrls1.perBankWrBursts::13            3827                       # Per bank write bursts
system.mem_ctrls1.perBankWrBursts::14            3898                       # Per bank write bursts
system.mem_ctrls1.perBankWrBursts::15            3835                       # Per bank write bursts
system.mem_ctrls1.numRdRetry                        5                       # Number of times read queue was full causing retry
system.mem_ctrls1.numWrRetry                       89                       # Number of times write queue was full causing retry
system.mem_ctrls1.totGap                  38216574000                       # Total gap between requests
system.mem_ctrls1.readPktSize::0                    0                       # Read request sizes (log2)
system.mem_ctrls1.readPktSize::1                    0                       # Read request sizes (log2)
system.mem_ctrls1.readPktSize::2                    0                       # Read request sizes (log2)
system.mem_ctrls1.readPktSize::3                    0                       # Read request sizes (log2)
system.mem_ctrls1.readPktSize::4                    0                       # Read request sizes (log2)
system.mem_ctrls1.readPktSize::5                    0                       # Read request sizes (log2)
system.mem_ctrls1.readPktSize::6                76288                       # Read request sizes (log2)
system.mem_ctrls1.writePktSize::0                   0                       # Write request sizes (log2)
system.mem_ctrls1.writePktSize::1                   0                       # Write request sizes (log2)
system.mem_ctrls1.writePktSize::2                   0                       # Write request sizes (log2)
system.mem_ctrls1.writePktSize::3                   0                       # Write request sizes (log2)
system.mem_ctrls1.writePktSize::4                   0                       # Write request sizes (log2)
system.mem_ctrls1.writePktSize::5                   0                       # Write request sizes (log2)
system.mem_ctrls1.writePktSize::6               60725                       # Write request sizes (log2)
system.mem_ctrls1.rdQLenPdf::0                  59415                       # What read queue length does an incoming req see
system.mem_ctrls1.rdQLenPdf::1                  10157                       # What read queue length does an incoming req see
system.mem_ctrls1.rdQLenPdf::2                   3262                       # What read queue length does an incoming req see
system.mem_ctrls1.rdQLenPdf::3                   1340                       # What read queue length does an incoming req see
system.mem_ctrls1.rdQLenPdf::4                    747                       # What read queue length does an incoming req see
system.mem_ctrls1.rdQLenPdf::5                    458                       # What read queue length does an incoming req see
system.mem_ctrls1.rdQLenPdf::6                    293                       # What read queue length does an incoming req see
system.mem_ctrls1.rdQLenPdf::7                    168                       # What read queue length does an incoming req see
system.mem_ctrls1.rdQLenPdf::8                     99                       # What read queue length does an incoming req see
system.mem_ctrls1.rdQLenPdf::9                     54                       # What read queue length does an incoming req see
system.mem_ctrls1.rdQLenPdf::10                    38                       # What read queue length does an incoming req see
system.mem_ctrls1.rdQLenPdf::11                    39                       # What read queue length does an incoming req see
system.mem_ctrls1.rdQLenPdf::12                    33                       # What read queue length does an incoming req see
system.mem_ctrls1.rdQLenPdf::13                    24                       # What read queue length does an incoming req see
system.mem_ctrls1.rdQLenPdf::14                    20                       # What read queue length does an incoming req see
system.mem_ctrls1.rdQLenPdf::15                    25                       # What read queue length does an incoming req see
system.mem_ctrls1.rdQLenPdf::16                    22                       # What read queue length does an incoming req see
system.mem_ctrls1.rdQLenPdf::17                    15                       # What read queue length does an incoming req see
system.mem_ctrls1.rdQLenPdf::18                    16                       # What read queue length does an incoming req see
system.mem_ctrls1.rdQLenPdf::19                    10                       # What read queue length does an incoming req see
system.mem_ctrls1.rdQLenPdf::20                     7                       # What read queue length does an incoming req see
system.mem_ctrls1.rdQLenPdf::21                     5                       # What read queue length does an incoming req see
system.mem_ctrls1.rdQLenPdf::22                     6                       # What read queue length does an incoming req see
system.mem_ctrls1.rdQLenPdf::23                     4                       # What read queue length does an incoming req see
system.mem_ctrls1.rdQLenPdf::24                     2                       # What read queue length does an incoming req see
system.mem_ctrls1.rdQLenPdf::25                     3                       # What read queue length does an incoming req see
system.mem_ctrls1.rdQLenPdf::26                     2                       # What read queue length does an incoming req see
system.mem_ctrls1.rdQLenPdf::27                     1                       # What read queue length does an incoming req see
system.mem_ctrls1.rdQLenPdf::28                     1                       # What read queue length does an incoming req see
system.mem_ctrls1.rdQLenPdf::29                     1                       # What read queue length does an incoming req see
system.mem_ctrls1.rdQLenPdf::30                     1                       # What read queue length does an incoming req see
system.mem_ctrls1.rdQLenPdf::31                     6                       # What read queue length does an incoming req see
system.mem_ctrls1.wrQLenPdf::0                  11305                       # What write queue length does an incoming req see
system.mem_ctrls1.wrQLenPdf::1                  12361                       # What write queue length does an incoming req see
system.mem_ctrls1.wrQLenPdf::2                  12371                       # What write queue length does an incoming req see
system.mem_ctrls1.wrQLenPdf::3                  12139                       # What write queue length does an incoming req see
system.mem_ctrls1.wrQLenPdf::4                  11782                       # What write queue length does an incoming req see
system.mem_ctrls1.wrQLenPdf::5                    435                       # What write queue length does an incoming req see
system.mem_ctrls1.wrQLenPdf::6                    164                       # What write queue length does an incoming req see
system.mem_ctrls1.wrQLenPdf::7                    168                       # What write queue length does an incoming req see
system.mem_ctrls1.bytesPerActivate::samples        50766                       # Bytes accessed per row activation
system.mem_ctrls1.bytesPerActivate::mean   172.695111                       # Bytes accessed per row activation
system.mem_ctrls1.bytesPerActivate::gmean   121.952416                       # Bytes accessed per row activation
system.mem_ctrls1.bytesPerActivate::stdev   179.063161                       # Bytes accessed per row activation
system.mem_ctrls1.bytesPerActivate::0-127        25755     50.73%     50.73% # Bytes accessed per row activation
system.mem_ctrls1.bytesPerActivate::128-255        12449     24.52%     75.26% # Bytes accessed per row activation
system.mem_ctrls1.bytesPerActivate::256-383         7557     14.89%     90.14% # Bytes accessed per row activation
system.mem_ctrls1.bytesPerActivate::384-511         1945      3.83%     93.97% # Bytes accessed per row activation
system.mem_ctrls1.bytesPerActivate::512-639         1101      2.17%     96.14% # Bytes accessed per row activation
system.mem_ctrls1.bytesPerActivate::640-767          618      1.22%     97.36% # Bytes accessed per row activation
system.mem_ctrls1.bytesPerActivate::768-895          452      0.89%     98.25% # Bytes accessed per row activation
system.mem_ctrls1.bytesPerActivate::896-1023          284      0.56%     98.81% # Bytes accessed per row activation
system.mem_ctrls1.bytesPerActivate::1024-1151          605      1.19%    100.00% # Bytes accessed per row activation
system.mem_ctrls1.bytesPerActivate::total        50766                       # Bytes accessed per row activation
system.mem_ctrls1.rdPerTurnAround::samples        11319                       # Reads before turning the bus around for writes
system.mem_ctrls1.rdPerTurnAround::mean      6.738581                       # Reads before turning the bus around for writes
system.mem_ctrls1.rdPerTurnAround::stdev    29.905239                       # Reads before turning the bus around for writes
system.mem_ctrls1.rdPerTurnAround::0-127        11314     99.96%     99.96% # Reads before turning the bus around for writes
system.mem_ctrls1.rdPerTurnAround::128-255            3      0.03%     99.98% # Reads before turning the bus around for writes
system.mem_ctrls1.rdPerTurnAround::1152-1279            1      0.01%     99.99% # Reads before turning the bus around for writes
system.mem_ctrls1.rdPerTurnAround::2816-2943            1      0.01%    100.00% # Reads before turning the bus around for writes
system.mem_ctrls1.rdPerTurnAround::total        11319                       # Reads before turning the bus around for writes
system.mem_ctrls1.wrPerTurnAround::samples        11319                       # Writes before turning the bus around for reads
system.mem_ctrls1.wrPerTurnAround::mean      5.364873                       # Writes before turning the bus around for reads
system.mem_ctrls1.wrPerTurnAround::gmean     5.288017                       # Writes before turning the bus around for reads
system.mem_ctrls1.wrPerTurnAround::stdev     1.129027                       # Writes before turning the bus around for reads
system.mem_ctrls1.wrPerTurnAround::4-7          10826     95.64%     95.64% # Writes before turning the bus around for reads
system.mem_ctrls1.wrPerTurnAround::8-11           407      3.60%     99.24% # Writes before turning the bus around for reads
system.mem_ctrls1.wrPerTurnAround::12-15           66      0.58%     99.82% # Writes before turning the bus around for reads
system.mem_ctrls1.wrPerTurnAround::16-19           20      0.18%    100.00% # Writes before turning the bus around for reads
system.mem_ctrls1.wrPerTurnAround::total        11319                       # Writes before turning the bus around for reads
system.mem_ctrls1.totQLat                  1824646904                       # Total ticks spent queuing
system.mem_ctrls1.totMemAccLat             3254784404                       # Total ticks spent from burst creation until serviced by the DRAM
system.mem_ctrls1.totBusLat                 381370000                       # Total ticks spent in databus transfers
system.mem_ctrls1.avgQLat                    23922.27                       # Average queueing delay per DRAM burst
system.mem_ctrls1.avgBusLat                   5000.00                       # Average bus latency per DRAM burst
system.mem_ctrls1.avgMemAccLat               42672.27                       # Average memory access latency per DRAM burst
system.mem_ctrls1.avgRdBW                      127.73                       # Average DRAM read bandwidth in MiByte/s
system.mem_ctrls1.avgWrBW                      101.69                       # Average achieved write bandwidth in MiByte/s
system.mem_ctrls1.avgRdBWSys                   127.75                       # Average system read bandwidth in MiByte/s
system.mem_ctrls1.avgWrBWSys                   101.69                       # Average system write bandwidth in MiByte/s
system.mem_ctrls1.peakBW                     12800.00                       # Theoretical peak bandwidth in MiByte/s
system.mem_ctrls1.busUtil                        1.79                       # Data bus utilization in percentage
system.mem_ctrls1.busUtilRead                    1.00                       # Data bus utilization in percentage for reads
system.mem_ctrls1.busUtilWrite                   0.79                       # Data bus utilization in percentage for writes
system.mem_ctrls1.avgRdQLen                      1.07                       # Average read queue length when enqueuing
system.mem_ctrls1.avgWrQLen                      2.91                       # Average write queue length when enqueuing
system.mem_ctrls1.readRowHits                   52724                       # Number of row buffer hits during reads
system.mem_ctrls1.writeRowHits                  33498                       # Number of row buffer hits during writes
system.mem_ctrls1.readRowHitRate                69.12                       # Row buffer hit rate for reads
system.mem_ctrls1.writeRowHitRate               55.16                       # Row buffer hit rate for writes
system.mem_ctrls1.avgGap                    278926.63                       # Average gap between requests
system.mem_ctrls1.pageHitRate                   62.94                       # Row buffer hit rate, read and write combined
system.mem_ctrls1.memoryStateTime::IDLE    8937850250                       # Time in different power states
system.mem_ctrls1.memoryStateTime::REF     1276080000                       # Time in different power states
system.mem_ctrls1.memoryStateTime::PRE_PDN            0                       # Time in different power states
system.mem_ctrls1.memoryStateTime::ACT    28001258500                       # Time in different power states
system.mem_ctrls1.memoryStateTime::ACT_PDN            0                       # Time in different power states
system.mem_ctrls1.actEnergy::0              193203360                       # Energy for activate commands per rank (pJ)
system.mem_ctrls1.actEnergy::1              190527120                       # Energy for activate commands per rank (pJ)
system.mem_ctrls1.preEnergy::0              105418500                       # Energy for precharge commands per rank (pJ)
system.mem_ctrls1.preEnergy::1              103958250                       # Energy for precharge commands per rank (pJ)
system.mem_ctrls1.readEnergy::0             300752400                       # Energy for read commands per rank (pJ)
system.mem_ctrls1.readEnergy::1             294060000                       # Energy for read commands per rank (pJ)
system.mem_ctrls1.writeEnergy::0            196045920                       # Energy for write commands per rank (pJ)
system.mem_ctrls1.writeEnergy::1            197387280                       # Energy for write commands per rank (pJ)
system.mem_ctrls1.refreshEnergy::0         2496012480                       # Energy for refresh commands per rank (pJ)
system.mem_ctrls1.refreshEnergy::1         2496012480                       # Energy for refresh commands per rank (pJ)
system.mem_ctrls1.actBackEnergy::0        15268697730                       # Energy for active background per rank (pJ)
system.mem_ctrls1.actBackEnergy::1        14540611365                       # Energy for active background per rank (pJ)
system.mem_ctrls1.preBackEnergy::0         9535510500                       # Energy for precharge background per rank (pJ)
system.mem_ctrls1.preBackEnergy::1        10174182750                       # Energy for precharge background per rank (pJ)
system.mem_ctrls1.totalEnergy::0          28095640890                       # Total energy per rank (pJ)
system.mem_ctrls1.totalEnergy::1          27996739245                       # Total energy per rank (pJ)
system.mem_ctrls1.averagePower::0          735.195924                       # Core power per rank (mW)
system.mem_ctrls1.averagePower::1          732.607904                       # Core power per rank (mW)
system.mem_ctrls2.bytes_read::ruby.dir_cntrl2      4880768                       # Number of bytes read from this memory
system.mem_ctrls2.bytes_read::total           4880768                       # Number of bytes read from this memory
system.mem_ctrls2.bytes_written::ruby.dir_cntrl2      3885376                       # Number of bytes written to this memory
system.mem_ctrls2.bytes_written::total        3885376                       # Number of bytes written to this memory
system.mem_ctrls2.num_reads::ruby.dir_cntrl2        76262                       # Number of read requests responded to by this memory
system.mem_ctrls2.num_reads::total              76262                       # Number of read requests responded to by this memory
system.mem_ctrls2.num_writes::ruby.dir_cntrl2        60709                       # Number of write requests responded to by this memory
system.mem_ctrls2.num_writes::total             60709                       # Number of write requests responded to by this memory
system.mem_ctrls2.bw_read::ruby.dir_cntrl2    127710941                       # Total read bandwidth from this memory (bytes/s)
system.mem_ctrls2.bw_read::total            127710941                       # Total read bandwidth from this memory (bytes/s)
system.mem_ctrls2.bw_write::ruby.dir_cntrl2    101665358                       # Write bandwidth from this memory (bytes/s)
system.mem_ctrls2.bw_write::total           101665358                       # Write bandwidth from this memory (bytes/s)
system.mem_ctrls2.bw_total::ruby.dir_cntrl2    229376300                       # Total bandwidth to/from this memory (bytes/s)
system.mem_ctrls2.bw_total::total           229376300                       # Total bandwidth to/from this memory (bytes/s)
system.mem_ctrls2.readReqs                      76262                       # Number of read requests accepted
system.mem_ctrls2.writeReqs                     60709                       # Number of write requests accepted
system.mem_ctrls2.readBursts                    76262                       # Number of DRAM read bursts, including those serviced by the write queue
system.mem_ctrls2.writeBursts                   60709                       # Number of DRAM write bursts, including those merged in the write queue
system.mem_ctrls2.bytesReadDRAM               4879808                       # Total number of bytes read from DRAM
system.mem_ctrls2.bytesReadWrQ                    960                       # Total number of bytes read from write queue
system.mem_ctrls2.bytesWritten                3885312                       # Total number of bytes written to DRAM
system.mem_ctrls2.bytesReadSys                4880768                       # Total read bytes from the system interface side
system.mem_ctrls2.bytesWrittenSys             3885376                       # Total written bytes from the system interface side
system.mem_ctrls2.servicedByWrQ                    15                       # Number of DRAM read bursts serviced by the write queue
system.mem_ctrls2.mergedWrBursts                    0                       # Number of DRAM write bursts merged with an existing one
system.mem_ctrls2.neitherReadNorWriteReqs            0                       # Number of requests that are neither read nor write
system.mem_ctrls2.perBankRdBursts::0             4319                       # Per bank write bursts
system.mem_ctrls2.perBankRdBursts::1             4748                       # Per bank write bursts
system.mem_ctrls2.perBankRdBursts::2             4466                       # Per bank write bursts
system.mem_ctrls2.perBankRdBursts::3             4903                       # Per bank write bursts
system.mem_ctrls2.perBankRdBursts::4             4777                       # Per bank write bursts
system.mem_ctrls2.perBankRdBursts::5             5296                       # Per bank write bursts
system.mem_ctrls2.perBankRdBursts::6             4862                       # Per bank write bursts
system.mem_ctrls2.perBankRdBursts::7             5159                       # Per bank write bursts
system.mem_ctrls2.perBankRdBursts::8             4921                       # Per bank write bursts
system.mem_ctrls2.perBankRdBursts::9             5097                       # Per bank write bursts
system.mem_ctrls2.perBankRdBursts::10            4520                       # Per bank write bursts
system.mem_ctrls2.perBankRdBursts::11            4768                       # Per bank write bursts
system.mem_ctrls2.perBankRdBursts::12            4492                       # Per bank write bursts
system.mem_ctrls2.perBankRdBursts::13            4543                       # Per bank write bursts
system.mem_ctrls2.perBankRdBursts::14            4623                       # Per bank write bursts
system.mem_ctrls2.perBankRdBursts::15            4753                       # Per bank write bursts
system.mem_ctrls2.perBankWrBursts::0             3556                       # Per bank write bursts
system.mem_ctrls2.perBankWrBursts::1             3504                       # Per bank write bursts
system.mem_ctrls2.perBankWrBursts::2             3568                       # Per bank write bursts
system.mem_ctrls2.perBankWrBursts::3             3732                       # Per bank write bursts
system.mem_ctrls2.perBankWrBursts::4             3787                       # Per bank write bursts
system.mem_ctrls2.perBankWrBursts::5             4120                       # Per bank write bursts
system.mem_ctrls2.perBankWrBursts::6             3853                       # Per bank write bursts
system.mem_ctrls2.perBankWrBursts::7             4111                       # Per bank write bursts
system.mem_ctrls2.perBankWrBursts::8             3970                       # Per bank write bursts
system.mem_ctrls2.perBankWrBursts::9             4042                       # Per bank write bursts
system.mem_ctrls2.perBankWrBursts::10            3616                       # Per bank write bursts
system.mem_ctrls2.perBankWrBursts::11            3577                       # Per bank write bursts
system.mem_ctrls2.perBankWrBursts::12            3720                       # Per bank write bursts
system.mem_ctrls2.perBankWrBursts::13            3821                       # Per bank write bursts
system.mem_ctrls2.perBankWrBursts::14            3894                       # Per bank write bursts
system.mem_ctrls2.perBankWrBursts::15            3837                       # Per bank write bursts
system.mem_ctrls2.numRdRetry                        0                       # Number of times read queue was full causing retry
system.mem_ctrls2.numWrRetry                       79                       # Number of times write queue was full causing retry
system.mem_ctrls2.totGap                  38217062000                       # Total gap between requests
system.mem_ctrls2.readPktSize::0                    0                       # Read request sizes (log2)
system.mem_ctrls2.readPktSize::1                    0                       # Read request sizes (log2)
system.mem_ctrls2.readPktSize::2                    0                       # Read request sizes (log2)
system.mem_ctrls2.readPktSize::3                    0                       # Read request sizes (log2)
system.mem_ctrls2.readPktSize::4                    0                       # Read request sizes (log2)
system.mem_ctrls2.readPktSize::5                    0                       # Read request sizes (log2)
system.mem_ctrls2.readPktSize::6                76262                       # Read request sizes (log2)
system.mem_ctrls2.writePktSize::0                   0                       # Write request sizes (log2)
system.mem_ctrls2.writePktSize::1                   0                       # Write request sizes (log2)
system.mem_ctrls2.writePktSize::2                   0                       # Write request sizes (log2)
system.mem_ctrls2.writePktSize::3                   0                       # Write request sizes (log2)
system.mem_ctrls2.writePktSize::4                   0                       # Write request sizes (log2)
system.mem_ctrls2.writePktSize::5                   0                       # Write request sizes (log2)
system.mem_ctrls2.writePktSize::6               60709                       # Write request sizes (log2)
system.mem_ctrls2.rdQLenPdf::0                  59721                       # What read queue length does an incoming req see
system.mem_ctrls2.rdQLenPdf::1                  10148                       # What read queue length does an incoming req see
system.mem_ctrls2.rdQLenPdf::2                   3148                       # What read queue length does an incoming req see
system.mem_ctrls2.rdQLenPdf::3                   1255                       # What read queue length does an incoming req see
system.mem_ctrls2.rdQLenPdf::4                    710                       # What read queue length does an incoming req see
system.mem_ctrls2.rdQLenPdf::5                    443                       # What read queue length does an incoming req see
system.mem_ctrls2.rdQLenPdf::6                    283                       # What read queue length does an incoming req see
system.mem_ctrls2.rdQLenPdf::7                    170                       # What read queue length does an incoming req see
system.mem_ctrls2.rdQLenPdf::8                     99                       # What read queue length does an incoming req see
system.mem_ctrls2.rdQLenPdf::9                     61                       # What read queue length does an incoming req see
system.mem_ctrls2.rdQLenPdf::10                    41                       # What read queue length does an incoming req see
system.mem_ctrls2.rdQLenPdf::11                    42                       # What read queue length does an incoming req see
system.mem_ctrls2.rdQLenPdf::12                    29                       # What read queue length does an incoming req see
system.mem_ctrls2.rdQLenPdf::13                    23                       # What read queue length does an incoming req see
system.mem_ctrls2.rdQLenPdf::14                    19                       # What read queue length does an incoming req see
system.mem_ctrls2.rdQLenPdf::15                    16                       # What read queue length does an incoming req see
system.mem_ctrls2.rdQLenPdf::16                    12                       # What read queue length does an incoming req see
system.mem_ctrls2.rdQLenPdf::17                     9                       # What read queue length does an incoming req see
system.mem_ctrls2.rdQLenPdf::18                     7                       # What read queue length does an incoming req see
system.mem_ctrls2.rdQLenPdf::19                     4                       # What read queue length does an incoming req see
system.mem_ctrls2.rdQLenPdf::20                     3                       # What read queue length does an incoming req see
system.mem_ctrls2.rdQLenPdf::21                     2                       # What read queue length does an incoming req see
system.mem_ctrls2.rdQLenPdf::22                     1                       # What read queue length does an incoming req see
system.mem_ctrls2.rdQLenPdf::23                     1                       # What read queue length does an incoming req see
system.mem_ctrls2.rdQLenPdf::24                     0                       # What read queue length does an incoming req see
system.mem_ctrls2.rdQLenPdf::25                     0                       # What read queue length does an incoming req see
system.mem_ctrls2.rdQLenPdf::26                     0                       # What read queue length does an incoming req see
system.mem_ctrls2.rdQLenPdf::27                     0                       # What read queue length does an incoming req see
system.mem_ctrls2.rdQLenPdf::28                     0                       # What read queue length does an incoming req see
system.mem_ctrls2.rdQLenPdf::29                     0                       # What read queue length does an incoming req see
system.mem_ctrls2.rdQLenPdf::30                     0                       # What read queue length does an incoming req see
system.mem_ctrls2.rdQLenPdf::31                     0                       # What read queue length does an incoming req see
system.mem_ctrls2.wrQLenPdf::0                  11342                       # What write queue length does an incoming req see
system.mem_ctrls2.wrQLenPdf::1                  12332                       # What write queue length does an incoming req see
system.mem_ctrls2.wrQLenPdf::2                  12355                       # What write queue length does an incoming req see
system.mem_ctrls2.wrQLenPdf::3                  12144                       # What write queue length does an incoming req see
system.mem_ctrls2.wrQLenPdf::4                  11799                       # What write queue length does an incoming req see
system.mem_ctrls2.wrQLenPdf::5                    408                       # What write queue length does an incoming req see
system.mem_ctrls2.wrQLenPdf::6                    164                       # What write queue length does an incoming req see
system.mem_ctrls2.wrQLenPdf::7                    165                       # What write queue length does an incoming req see
system.mem_ctrls2.bytesPerActivate::samples        50783                       # Bytes accessed per row activation
system.mem_ctrls2.bytesPerActivate::mean   172.586889                       # Bytes accessed per row activation
system.mem_ctrls2.bytesPerActivate::gmean   121.929328                       # Bytes accessed per row activation
system.mem_ctrls2.bytesPerActivate::stdev   178.933933                       # Bytes accessed per row activation
system.mem_ctrls2.bytesPerActivate::0-127        25757     50.72%     50.72% # Bytes accessed per row activation
system.mem_ctrls2.bytesPerActivate::128-255        12451     24.52%     75.24% # Bytes accessed per row activation
system.mem_ctrls2.bytesPerActivate::256-383         7602     14.97%     90.21% # Bytes accessed per row activation
system.mem_ctrls2.bytesPerActivate::384-511         1909      3.76%     93.97% # Bytes accessed per row activation
system.mem_ctrls2.bytesPerActivate::512-639         1114      2.19%     96.16% # Bytes accessed per row activation
system.mem_ctrls2.bytesPerActivate::640-767          589      1.16%     97.32% # Bytes accessed per row activation
system.mem_ctrls2.bytesPerActivate::768-895          456      0.90%     98.22% # Bytes accessed per row activation
system.mem_ctrls2.bytesPerActivate::896-1023          317      0.62%     98.84% # Bytes accessed per row activation
system.mem_ctrls2.bytesPerActivate::1024-1151          588      1.16%    100.00% # Bytes accessed per row activation
system.mem_ctrls2.bytesPerActivate::total        50783                       # Bytes accessed per row activation
system.mem_ctrls2.rdPerTurnAround::samples        11353                       # Reads before turning the bus around for writes
system.mem_ctrls2.rdPerTurnAround::mean      6.715670                       # Reads before turning the bus around for writes
system.mem_ctrls2.rdPerTurnAround::stdev    29.932138                       # Reads before turning the bus around for writes
system.mem_ctrls2.rdPerTurnAround::0-127        11348     99.96%     99.96% # Reads before turning the bus around for writes
system.mem_ctrls2.rdPerTurnAround::128-255            3      0.03%     99.98% # Reads before turning the bus around for writes
system.mem_ctrls2.rdPerTurnAround::1152-1279            1      0.01%     99.99% # Reads before turning the bus around for writes
system.mem_ctrls2.rdPerTurnAround::2816-2943            1      0.01%    100.00% # Reads before turning the bus around for writes
system.mem_ctrls2.rdPerTurnAround::total        11353                       # Reads before turning the bus around for writes
system.mem_ctrls2.wrPerTurnAround::samples        11353                       # Writes before turning the bus around for reads
system.mem_ctrls2.wrPerTurnAround::mean      5.347309                       # Writes before turning the bus around for reads
system.mem_ctrls2.wrPerTurnAround::gmean     5.273008                       # Writes before turning the bus around for reads
system.mem_ctrls2.wrPerTurnAround::stdev     1.117465                       # Writes before turning the bus around for reads
system.mem_ctrls2.wrPerTurnAround::4-7          10894     95.96%     95.96% # Writes before turning the bus around for reads
system.mem_ctrls2.wrPerTurnAround::8-11           370      3.26%     99.22% # Writes before turning the bus around for reads
system.mem_ctrls2.wrPerTurnAround::12-15           73      0.64%     99.86% # Writes before turning the bus around for reads
system.mem_ctrls2.wrPerTurnAround::16-19           16      0.14%    100.00% # Writes before turning the bus around for reads
system.mem_ctrls2.wrPerTurnAround::total        11353                       # Writes before turning the bus around for reads
system.mem_ctrls2.totQLat                  1781287425                       # Total ticks spent queuing
system.mem_ctrls2.totMemAccLat             3210918675                       # Total ticks spent from burst creation until serviced by the DRAM
system.mem_ctrls2.totBusLat                 381235000                       # Total ticks spent in databus transfers
system.mem_ctrls2.avgQLat                    23362.07                       # Average queueing delay per DRAM burst
system.mem_ctrls2.avgBusLat                   5000.00                       # Average bus latency per DRAM burst
system.mem_ctrls2.avgMemAccLat               42112.07                       # Average memory access latency per DRAM burst
system.mem_ctrls2.avgRdBW                      127.69                       # Average DRAM read bandwidth in MiByte/s
system.mem_ctrls2.avgWrBW                      101.66                       # Average achieved write bandwidth in MiByte/s
system.mem_ctrls2.avgRdBWSys                   127.71                       # Average system read bandwidth in MiByte/s
system.mem_ctrls2.avgWrBWSys                   101.67                       # Average system write bandwidth in MiByte/s
system.mem_ctrls2.peakBW                     12800.00                       # Theoretical peak bandwidth in MiByte/s
system.mem_ctrls2.busUtil                        1.79                       # Data bus utilization in percentage
system.mem_ctrls2.busUtilRead                    1.00                       # Data bus utilization in percentage for reads
system.mem_ctrls2.busUtilWrite                   0.79                       # Data bus utilization in percentage for writes
system.mem_ctrls2.avgRdQLen                      1.07                       # Average read queue length when enqueuing
system.mem_ctrls2.avgWrQLen                      2.93                       # Average write queue length when enqueuing
system.mem_ctrls2.readRowHits                   52662                       # Number of row buffer hits during reads
system.mem_ctrls2.writeRowHits                  33503                       # Number of row buffer hits during writes
system.mem_ctrls2.readRowHitRate                69.07                       # Row buffer hit rate for reads
system.mem_ctrls2.writeRowHitRate               55.19                       # Row buffer hit rate for writes
system.mem_ctrls2.avgGap                    279015.72                       # Average gap between requests
system.mem_ctrls2.pageHitRate                   62.91                       # Row buffer hit rate, read and write combined
system.mem_ctrls2.memoryStateTime::IDLE    8930878750                       # Time in different power states
system.mem_ctrls2.memoryStateTime::REF     1276080000                       # Time in different power states
system.mem_ctrls2.memoryStateTime::PRE_PDN            0                       # Time in different power states
system.mem_ctrls2.memoryStateTime::ACT    28008441750                       # Time in different power states
system.mem_ctrls2.memoryStateTime::ACT_PDN            0                       # Time in different power states
system.mem_ctrls2.actEnergy::0              192538080                       # Energy for activate commands per rank (pJ)
system.mem_ctrls2.actEnergy::1              191351160                       # Energy for activate commands per rank (pJ)
system.mem_ctrls2.preEnergy::0              105055500                       # Energy for precharge commands per rank (pJ)
system.mem_ctrls2.preEnergy::1              104407875                       # Energy for precharge commands per rank (pJ)
system.mem_ctrls2.readEnergy::0             300487200                       # Energy for read commands per rank (pJ)
system.mem_ctrls2.readEnergy::1             294161400                       # Energy for read commands per rank (pJ)
system.mem_ctrls2.writeEnergy::0            195896880                       # Energy for write commands per rank (pJ)
system.mem_ctrls2.writeEnergy::1            197458560                       # Energy for write commands per rank (pJ)
system.mem_ctrls2.refreshEnergy::0         2496012480                       # Energy for refresh commands per rank (pJ)
system.mem_ctrls2.refreshEnergy::1         2496012480                       # Energy for refresh commands per rank (pJ)
system.mem_ctrls2.actBackEnergy::0        15129415665                       # Energy for active background per rank (pJ)
system.mem_ctrls2.actBackEnergy::1        14674484700                       # Energy for active background per rank (pJ)
system.mem_ctrls2.preBackEnergy::0         9657687750                       # Energy for precharge background per rank (pJ)
system.mem_ctrls2.preBackEnergy::1        10056750000                       # Energy for precharge background per rank (pJ)
system.mem_ctrls2.totalEnergy::0          28077093555                       # Total energy per rank (pJ)
system.mem_ctrls2.totalEnergy::1          28014626175                       # Total energy per rank (pJ)
system.mem_ctrls2.averagePower::0          734.710584                       # Core power per rank (mW)
system.mem_ctrls2.averagePower::1          733.075962                       # Core power per rank (mW)
system.mem_ctrls3.bytes_read::ruby.dir_cntrl3      4857664                       # Number of bytes read from this memory
system.mem_ctrls3.bytes_read::total           4857664                       # Number of bytes read from this memory
system.mem_ctrls3.bytes_written::ruby.dir_cntrl3      3879104                       # Number of bytes written to this memory
system.mem_ctrls3.bytes_written::total        3879104                       # Number of bytes written to this memory
system.mem_ctrls3.num_reads::ruby.dir_cntrl3        75901                       # Number of read requests responded to by this memory
system.mem_ctrls3.num_reads::total              75901                       # Number of read requests responded to by this memory
system.mem_ctrls3.num_writes::ruby.dir_cntrl3        60611                       # Number of write requests responded to by this memory
system.mem_ctrls3.num_writes::total             60611                       # Number of write requests responded to by this memory
system.mem_ctrls3.bw_read::ruby.dir_cntrl3    127106399                       # Total read bandwidth from this memory (bytes/s)
system.mem_ctrls3.bw_read::total            127106399                       # Total read bandwidth from this memory (bytes/s)
system.mem_ctrls3.bw_write::ruby.dir_cntrl3    101501244                       # Write bandwidth from this memory (bytes/s)
system.mem_ctrls3.bw_write::total           101501244                       # Write bandwidth from this memory (bytes/s)
system.mem_ctrls3.bw_total::ruby.dir_cntrl3    228607643                       # Total bandwidth to/from this memory (bytes/s)
system.mem_ctrls3.bw_total::total           228607643                       # Total bandwidth to/from this memory (bytes/s)
system.mem_ctrls3.readReqs                      75902                       # Number of read requests accepted
system.mem_ctrls3.writeReqs                     60611                       # Number of write requests accepted
system.mem_ctrls3.readBursts                    75902                       # Number of DRAM read bursts, including those serviced by the write queue
system.mem_ctrls3.writeBursts                   60611                       # Number of DRAM write bursts, including those merged in the write queue
system.mem_ctrls3.bytesReadDRAM               4857152                       # Total number of bytes read from DRAM
system.mem_ctrls3.bytesReadWrQ                    576                       # Total number of bytes read from write queue
system.mem_ctrls3.bytesWritten                3878912                       # Total number of bytes written to DRAM
system.mem_ctrls3.bytesReadSys                4857728                       # Total read bytes from the system interface side
system.mem_ctrls3.bytesWrittenSys             3879104                       # Total written bytes from the system interface side
system.mem_ctrls3.servicedByWrQ                     9                       # Number of DRAM read bursts serviced by the write queue
system.mem_ctrls3.mergedWrBursts                    0                       # Number of DRAM write bursts merged with an existing one
system.mem_ctrls3.neitherReadNorWriteReqs            0                       # Number of requests that are neither read nor write
system.mem_ctrls3.perBankRdBursts::0             4298                       # Per bank write bursts
system.mem_ctrls3.perBankRdBursts::1             4714                       # Per bank write bursts
system.mem_ctrls3.perBankRdBursts::2             4416                       # Per bank write bursts
system.mem_ctrls3.perBankRdBursts::3             4860                       # Per bank write bursts
system.mem_ctrls3.perBankRdBursts::4             4732                       # Per bank write bursts
system.mem_ctrls3.perBankRdBursts::5             5245                       # Per bank write bursts
system.mem_ctrls3.perBankRdBursts::6             4870                       # Per bank write bursts
system.mem_ctrls3.perBankRdBursts::7             5147                       # Per bank write bursts
system.mem_ctrls3.perBankRdBursts::8             4921                       # Per bank write bursts
system.mem_ctrls3.perBankRdBursts::9             5075                       # Per bank write bursts
system.mem_ctrls3.perBankRdBursts::10            4518                       # Per bank write bursts
system.mem_ctrls3.perBankRdBursts::11            4731                       # Per bank write bursts
system.mem_ctrls3.perBankRdBursts::12            4478                       # Per bank write bursts
system.mem_ctrls3.perBankRdBursts::13            4517                       # Per bank write bursts
system.mem_ctrls3.perBankRdBursts::14            4643                       # Per bank write bursts
system.mem_ctrls3.perBankRdBursts::15            4728                       # Per bank write bursts
system.mem_ctrls3.perBankWrBursts::0             3555                       # Per bank write bursts
system.mem_ctrls3.perBankWrBursts::1             3501                       # Per bank write bursts
system.mem_ctrls3.perBankWrBursts::2             3564                       # Per bank write bursts
system.mem_ctrls3.perBankWrBursts::3             3718                       # Per bank write bursts
system.mem_ctrls3.perBankWrBursts::4             3782                       # Per bank write bursts
system.mem_ctrls3.perBankWrBursts::5             4105                       # Per bank write bursts
system.mem_ctrls3.perBankWrBursts::6             3845                       # Per bank write bursts
system.mem_ctrls3.perBankWrBursts::7             4097                       # Per bank write bursts
system.mem_ctrls3.perBankWrBursts::8             3970                       # Per bank write bursts
system.mem_ctrls3.perBankWrBursts::9             4035                       # Per bank write bursts
system.mem_ctrls3.perBankWrBursts::10            3603                       # Per bank write bursts
system.mem_ctrls3.perBankWrBursts::11            3581                       # Per bank write bursts
system.mem_ctrls3.perBankWrBursts::12            3712                       # Per bank write bursts
system.mem_ctrls3.perBankWrBursts::13            3823                       # Per bank write bursts
system.mem_ctrls3.perBankWrBursts::14            3892                       # Per bank write bursts
system.mem_ctrls3.perBankWrBursts::15            3825                       # Per bank write bursts
system.mem_ctrls3.numRdRetry                        0                       # Number of times read queue was full causing retry
system.mem_ctrls3.numWrRetry                      103                       # Number of times write queue was full causing retry
system.mem_ctrls3.totGap                  38216564500                       # Total gap between requests
system.mem_ctrls3.readPktSize::0                    0                       # Read request sizes (log2)
system.mem_ctrls3.readPktSize::1                    0                       # Read request sizes (log2)
system.mem_ctrls3.readPktSize::2                    0                       # Read request sizes (log2)
system.mem_ctrls3.readPktSize::3                    0                       # Read request sizes (log2)
system.mem_ctrls3.readPktSize::4                    0                       # Read request sizes (log2)
system.mem_ctrls3.readPktSize::5                    0                       # Read request sizes (log2)
system.mem_ctrls3.readPktSize::6                75902                       # Read request sizes (log2)
system.mem_ctrls3.writePktSize::0                   0                       # Write request sizes (log2)
system.mem_ctrls3.writePktSize::1                   0                       # Write request sizes (log2)
system.mem_ctrls3.writePktSize::2                   0                       # Write request sizes (log2)
system.mem_ctrls3.writePktSize::3                   0                       # Write request sizes (log2)
system.mem_ctrls3.writePktSize::4                   0                       # Write request sizes (log2)
system.mem_ctrls3.writePktSize::5                   0                       # Write request sizes (log2)
system.mem_ctrls3.writePktSize::6               60611                       # Write request sizes (log2)
system.mem_ctrls3.rdQLenPdf::0                  59405                       # What read queue length does an incoming req see
system.mem_ctrls3.rdQLenPdf::1                  10079                       # What read queue length does an incoming req see
system.mem_ctrls3.rdQLenPdf::2                   3161                       # What read queue length does an incoming req see
system.mem_ctrls3.rdQLenPdf::3                   1308                       # What read queue length does an incoming req see
system.mem_ctrls3.rdQLenPdf::4                    728                       # What read queue length does an incoming req see
system.mem_ctrls3.rdQLenPdf::5                    421                       # What read queue length does an incoming req see
system.mem_ctrls3.rdQLenPdf::6                    242                       # What read queue length does an incoming req see
system.mem_ctrls3.rdQLenPdf::7                    153                       # What read queue length does an incoming req see
system.mem_ctrls3.rdQLenPdf::8                     86                       # What read queue length does an incoming req see
system.mem_ctrls3.rdQLenPdf::9                     57                       # What read queue length does an incoming req see
system.mem_ctrls3.rdQLenPdf::10                    42                       # What read queue length does an incoming req see
system.mem_ctrls3.rdQLenPdf::11                    36                       # What read queue length does an incoming req see
system.mem_ctrls3.rdQLenPdf::12                    27                       # What read queue length does an incoming req see
system.mem_ctrls3.rdQLenPdf::13                    28                       # What read queue length does an incoming req see
system.mem_ctrls3.rdQLenPdf::14                    28                       # What read queue length does an incoming req see
system.mem_ctrls3.rdQLenPdf::15                    20                       # What read queue length does an incoming req see
system.mem_ctrls3.rdQLenPdf::16                    14                       # What read queue length does an incoming req see
system.mem_ctrls3.rdQLenPdf::17                    11                       # What read queue length does an incoming req see
system.mem_ctrls3.rdQLenPdf::18                     9                       # What read queue length does an incoming req see
system.mem_ctrls3.rdQLenPdf::19                     6                       # What read queue length does an incoming req see
system.mem_ctrls3.rdQLenPdf::20                     8                       # What read queue length does an incoming req see
system.mem_ctrls3.rdQLenPdf::21                     4                       # What read queue length does an incoming req see
system.mem_ctrls3.rdQLenPdf::22                     6                       # What read queue length does an incoming req see
system.mem_ctrls3.rdQLenPdf::23                     2                       # What read queue length does an incoming req see
system.mem_ctrls3.rdQLenPdf::24                     3                       # What read queue length does an incoming req see
[...]
system.ruby.L2Cache_Controller.MT_IIB.WB_Data::total       210438                      
system.ruby.L2Cache_Controller.MT_IIB.WB_Data_clean |         625      3.22%      3.22% |         606      3.12%      6.33% |         593      3.05%      9.38% |         603      3.10%     12.49% |         615      3.16%     15.65% |         610      3.14%     18.79% |         614      3.16%     21.95% |         597      3.07%     25.02% |         612      3.15%     28.17% |         603      3.10%     31.27% |         616      3.17%     34.44% |         599      3.08%     37.52% |         607      3.12%     40.65% |         606      3.12%     43.76% |         619      3.18%     46.95% |         611      3.14%     50.09% |         596      3.07%     53.16% |         597      3.07%     56.23% |         609      3.13%     59.36% |         604      3.11%     62.47% |         601      3.09%     65.56% |         596      3.07%     68.63% |         620      3.19%     71.82% |         616      3.17%     74.99% |         603      3.10%     78.09% |         591      3.04%     81.13% |         592      3.05%     84.18% |         596      3.07%     87.25% |         622      3.20%     90.45% |         610      3.14%     93.58% |         630      3.24%     96.83% |         617      3.17%    100.00%
system.ruby.L2Cache_Controller.MT_IIB.WB_Data_clean::total        19436                      
system.ruby.L2Cache_Controller.MT_IIB.Unblock |          62      0.93%      0.93% |          95      1.42%      2.35% |         145      2.17%      4.53% |         219      3.28%      7.81% |         114      1.71%      9.52% |         207      3.10%     12.62% |         222      3.33%     15.95% |         272      4.08%     20.03% |         323      4.84%     24.87% |         241      3.61%     28.48% |         233      3.49%     31.97% |         258      3.87%     35.84% |         174      2.61%     38.45% |         250      3.75%     42.20% |         194      2.91%     45.11% |         140      2.10%     47.20% |         202      3.03%     50.23% |         263      3.94%     54.17% |         228      3.42%     57.59% |         238      3.57%     61.16% |         312      4.68%     65.84% |         231      3.46%     69.30% |         166      2.49%     71.79% |         173      2.59%     74.38% |         235      3.52%     77.90% |         186      2.79%     80.69% |         214      3.21%     83.90% |         218      3.27%     87.17% |         156      2.34%     89.51% |         291      4.36%     93.87% |         155      2.32%     96.19% |         254      3.81%    100.00%
system.ruby.L2Cache_Controller.MT_IIB.Unblock::total         6671                      
system.ruby.L2Cache_Controller.MT_IB.L1_GETS |           1     33.33%     33.33% |           0      0.00%     33.33% |           0      0.00%     33.33% |           0      0.00%     33.33% |           1     33.33%     66.67% |           0      0.00%     66.67% |           0      0.00%     66.67% |           1     33.33%    100.00% |           0      0.00%    100.00% |           0      0.00%    100.00% |           0      0.00%    100.00% |           0      0.00%    100.00% |           0      0.00%    100.00% |           0      0.00%    100.00% |           0      0.00%    100.00% |           0      0.00%    100.00% |           0      0.00%    100.00% |           0      0.00%    100.00% |           0      0.00%    100.00% |           0      0.00%    100.00% |           0      0.00%    100.00% |           0      0.00%    100.00% |           0      0.00%    100.00% |           0      0.00%    100.00% |           0      0.00%    100.00% |           0      0.00%    100.00% |           0      0.00%    100.00% |           0      0.00%    100.00% |           0      0.00%    100.00% |           0      0.00%    100.00% |           0      0.00%    100.00% |           0      0.00%    100.00%
system.ruby.L2Cache_Controller.MT_IB.L1_GETS::total            3                      
system.ruby.L2Cache_Controller.MT_IB.L1_GETX |           0      0.00%      0.00% |           0      0.00%      0.00% |           0      0.00%      0.00% |           0      0.00%      0.00% |           0      0.00%      0.00% |           0      0.00%      0.00% |           2    100.00%    100.00% |           0      0.00%    100.00% |           0      0.00%    100.00% |           0      0.00%    100.00% |           0      0.00%    100.00% |           0      0.00%    100.00% |           0      0.00%    100.00% |           0      0.00%    100.00% |           0      0.00%    100.00% |           0      0.00%    100.00% |           0      0.00%    100.00% |           0      0.00%    100.00% |           0      0.00%    100.00% |           0      0.00%    100.00% |           0      0.00%    100.00% |           0      0.00%    100.00% |           0      0.00%    100.00% |           0      0.00%    100.00% |           0      0.00%    100.00% |           0      0.00%    100.00% |           0      0.00%    100.00% |           0      0.00%    100.00% |           0      0.00%    100.00% |           0      0.00%    100.00% |           0      0.00%    100.00% |           0      0.00%    100.00%
system.ruby.L2Cache_Controller.MT_IB.L1_GETX::total            2                      
system.ruby.L2Cache_Controller.MT_IB.L1_UPGRADE |           0      0.00%      0.00% |           0      0.00%      0.00% |           0      0.00%      0.00% |           0      0.00%      0.00% |           0      0.00%      0.00% |           0      0.00%      0.00% |           0      0.00%      0.00% |           0      0.00%      0.00% |           0      0.00%      0.00% |           0      0.00%      0.00% |           0      0.00%      0.00% |           2     18.18%     18.18% |           0      0.00%     18.18% |           1      9.09%     27.27% |           1      9.09%     36.36% |           0      0.00%     36.36% |           1      9.09%     45.45% |           0      0.00%     45.45% |           0      0.00%     45.45% |           0      0.00%     45.45% |           0      0.00%     45.45% |           0      0.00%     45.45% |           0      0.00%     45.45% |           0      0.00%     45.45% |           1      9.09%     54.55% |           0      0.00%     54.55% |           2     18.18%     72.73% |           0      0.00%     72.73% |           2     18.18%     90.91% |           1      9.09%    100.00% |           0      0.00%    100.00% |           0      0.00%    100.00%
system.ruby.L2Cache_Controller.MT_IB.L1_UPGRADE::total           11                      
system.ruby.L2Cache_Controller.MT_IB.WB_Data |          57      0.91%      0.91% |          87      1.38%      2.29% |         136      2.16%      4.45% |         205      3.26%      7.71% |         111      1.77%      9.48% |         191      3.04%     12.52% |         213      3.39%     15.91% |         248      3.94%     19.85% |         309      4.91%     24.77% |         231      3.67%     28.44% |         221      3.52%     31.95% |         247      3.93%     35.88% |         164      2.61%     38.49% |         235      3.74%     42.23% |         183      2.91%     45.14% |         130      2.07%     47.21% |         194      3.09%     50.29% |         246      3.91%     54.21% |         221      3.52%     57.72% |         224      3.56%     61.29% |         293      4.66%     65.95% |         216      3.44%     69.38% |         156      2.48%     71.86% |         162      2.58%     74.44% |         222      3.53%     77.97% |         173      2.75%     80.72% |         201      3.20%     83.92% |         201      3.20%     87.12% |         148      2.35%     89.47% |         276      4.39%     93.86% |         153      2.43%     96.29% |         233      3.71%    100.00%
system.ruby.L2Cache_Controller.MT_IB.WB_Data::total         6287                      
system.ruby.L2Cache_Controller.MT_IB.WB_Data_clean |           5      1.30%      1.30% |           8      2.08%      3.39% |           9      2.34%      5.73% |          14      3.65%      9.38% |           3      0.78%     10.16% |          16      4.17%     14.32% |           9      2.34%     16.67% |          24      6.25%     22.92% |          14      3.65%     26.56% |          10      2.60%     29.17% |          12      3.12%     32.29% |          11      2.86%     35.16% |          10      2.60%     37.76% |          15      3.91%     41.67% |          11      2.86%     44.53% |          10      2.60%     47.14% |           8      2.08%     49.22% |          17      4.43%     53.65% |           7      1.82%     55.47% |          14      3.65%     59.11% |          19      4.95%     64.06% |          15      3.91%     67.97% |          10      2.60%     70.57% |          11      2.86%     73.44% |          13      3.39%     76.82% |          13      3.39%     80.21% |          13      3.39%     83.59% |          17      4.43%     88.02% |           8      2.08%     90.10% |          15      3.91%     94.01% |           2      0.52%     94.53% |          21      5.47%    100.00%
system.ruby.L2Cache_Controller.MT_IB.WB_Data_clean::total          384                      
system.ruby.L2Cache_Controller.MT_SB.L1_GETS |          42      3.29%      3.29% |          48      3.76%      7.06% |          42      3.29%     10.35% |          43      3.37%     13.73% |          44      3.45%     17.18% |          37      2.90%     20.08% |          58      4.55%     24.63% |          39      3.06%     27.69% |          39      3.06%     30.75% |          45      3.53%     34.27% |          32      2.51%     36.78% |          39      3.06%     39.84% |          34      2.67%     42.51% |          44      3.45%     45.96% |          33      2.59%     48.55% |          49      3.84%     52.39% |          30      2.35%     54.75% |          44      3.45%     58.20% |          47      3.69%     61.88% |          38      2.98%     64.86% |          32      2.51%     67.37% |          31      2.43%     69.80% |          33      2.59%     72.39% |          35      2.75%     75.14% |          47      3.69%     78.82% |          38      2.98%     81.80% |          39      3.06%     84.86% |          34      2.67%     87.53% |          44      3.45%     90.98% |          43      3.37%     94.35% |          37      2.90%     97.25% |          35      2.75%    100.00%
system.ruby.L2Cache_Controller.MT_SB.L1_GETS::total         1275                      
system.ruby.L2Cache_Controller.MT_SB.L1_GETX |          20      3.65%      3.65% |          10      1.82%      5.47% |          20      3.65%      9.12% |          19      3.47%     12.59% |          20      3.65%     16.24% |          14      2.55%     18.80% |          14      2.55%     21.35% |           7      1.28%     22.63% |          20      3.65%     26.28% |          23      4.20%     30.47% |          20      3.65%     34.12% |          15      2.74%     36.86% |          20      3.65%     40.51% |          20      3.65%     44.16% |          23      4.20%     48.36% |          19      3.47%     51.82% |          10      1.82%     53.65% |          15      2.74%     56.39% |          22      4.01%     60.40% |          21      3.83%     64.23% |          16      2.92%     67.15% |          13      2.37%     69.53% |          11      2.01%     71.53% |          19      3.47%     75.00% |          25      4.56%     79.56% |          16      2.92%     82.48% |          20      3.65%     86.13% |          16      2.92%     89.05% |          15      2.74%     91.79% |          18      3.28%     95.07% |           9      1.64%     96.72% |          18      3.28%    100.00%
system.ruby.L2Cache_Controller.MT_SB.L1_GETX::total          548                      
system.ruby.L2Cache_Controller.MT_SB.L1_UPGRADE |          15      4.57%      4.57% |           7      2.13%      6.71% |           6      1.83%      8.54% |          12      3.66%     12.20% |           6      1.83%     14.02% |           7      2.13%     16.16% |          15      4.57%     20.73% |          14      4.27%     25.00% |          12      3.66%     28.66% |          10      3.05%     31.71% |           7      2.13%     33.84% |           8      2.44%     36.28% |          11      3.35%     39.63% |           9      2.74%     42.38% |          14      4.27%     46.65% |           9      2.74%     49.39% |          10      3.05%     52.44% |          10      3.05%     55.49% |          14      4.27%     59.76% |           9      2.74%     62.50% |           9      2.74%     65.24% |           9      2.74%     67.99% |           6      1.83%     69.82% |          12      3.66%     73.48% |          14      4.27%     77.74% |           6      1.83%     79.57% |           9      2.74%     82.32% |           8      2.44%     84.76% |           9      2.74%     87.50% |          15      4.57%     92.07% |          12      3.66%     95.73% |          14      4.27%    100.00%
system.ruby.L2Cache_Controller.MT_SB.L1_UPGRADE::total          328                      
system.ruby.L2Cache_Controller.MT_SB.Unblock |        7505      3.26%      3.26% |        7302      3.18%      6.44% |        7232      3.15%      9.59% |        7156      3.11%     12.70% |        7392      3.22%     15.92% |        7227      3.14%     19.06% |        7169      3.12%     22.18% |        7134      3.10%     25.28% |        7194      3.13%     28.41% |        7134      3.10%     31.52% |        7146      3.11%     34.62% |        7094      3.09%     37.71% |        7351      3.20%     40.91% |        7046      3.07%     43.97% |        7213      3.14%     47.11% |        7236      3.15%     50.26% |        7339      3.19%     53.45% |        7028      3.06%     56.51% |        7122      3.10%     59.61% |        7079      3.08%     62.69% |        7244      3.15%     65.84% |        7080      3.08%     68.92% |        7115      3.10%     72.01% |        7193      3.13%     75.14% |        7245      3.15%     78.29% |        7084      3.08%     81.38% |        7051      3.07%     84.44% |        7018      3.05%     87.50% |        7426      3.23%     90.73% |        7067      3.07%     93.80% |        7216      3.14%     96.94% |        7036      3.06%    100.00%
system.ruby.L2Cache_Controller.MT_SB.Unblock::total       229874                      
system.ruby.SimicsNetworkPortInterface_Controller.MessageSend |      464820     19.80%     19.80% |     1173561     50.00%     69.80% |       87796      3.74%     73.54% |       94327      4.02%     77.56% |       88754      3.78%     81.34% |       93569      3.99%     85.33% |       89406      3.81%     89.14% |       95866      4.08%     93.22% |       76716      3.27%     96.49% |       82307      3.51%    100.00% |           0      0.00%    100.00% |           0      0.00%    100.00% |           0      0.00%    100.00% |           0      0.00%    100.00% |           0      0.00%    100.00% |           0      0.00%    100.00% |           0      0.00%    100.00% |           0      0.00%    100.00% |           0      0.00%    100.00% |           0      0.00%    100.00% |           0      0.00%    100.00% |           0      0.00%    100.00% |           0      0.00%    100.00% |           0      0.00%    100.00% |           0      0.00%    100.00% |           0      0.00%    100.00% |           0      0.00%    100.00% |           0      0.00%    100.00% |           0      0.00%    100.00% |           0      0.00%    100.00% |           0      0.00%    100.00% |           0      0.00%    100.00%
system.ruby.SimicsNetworkPortInterface_Controller.MessageSend::total      2347122                      
system.ruby.SimicsNetworkPortInterface_Controller.MessageRecv |      464820     19.80%     19.80% |     1173561     50.00%     69.80% |       87796      3.74%     73.54% |       94327      4.02%     77.56% |       88754      3.78%     81.34% |       93569      3.99%     85.33% |       89406      3.81%     89.14% |       95866      4.08%     93.22% |       76716      3.27%     96.49% |       82307      3.51%    100.00% |           0      0.00%    100.00% |           0      0.00%    100.00% |           0      0.00%    100.00% |           0      0.00%    100.00% |           0      0.00%    100.00% |           0      0.00%    100.00% |           0      0.00%    100.00% |           0      0.00%    100.00% |           0      0.00%    100.00% |           0      0.00%    100.00% |           0      0.00%    100.00% |           0      0.00%    100.00% |           0      0.00%    100.00% |           0      0.00%    100.00% |           0      0.00%    100.00% |           0      0.00%    100.00% |           0      0.00%    100.00% |           0      0.00%    100.00% |           0      0.00%    100.00% |           0      0.00%    100.00% |           0      0.00%    100.00% |           0      0.00%    100.00%
system.ruby.SimicsNetworkPortInterface_Controller.MessageRecv::total      2347122                      
system.ruby.SimicsNetworkPortInterface_Controller.A.MessageSend |      464820     19.80%     19.80% |     1173561     50.00%     69.80% |       87796      3.74%     73.54% |       94327      4.02%     77.56% |       88754      3.78%     81.34% |       93569      3.99%     85.33% |       89406      3.81%     89.14% |       95866      4.08%     93.22% |       76716      3.27%     96.49% |       82307      3.51%    100.00% |           0      0.00%    100.00% |           0      0.00%    100.00% |           0      0.00%    100.00% |           0      0.00%    100.00% |           0      0.00%    100.00% |           0      0.00%    100.00% |           0      0.00%    100.00% |           0      0.00%    100.00% |           0      0.00%    100.00% |           0      0.00%    100.00% |           0      0.00%    100.00% |           0      0.00%    100.00% |           0      0.00%    100.00% |           0      0.00%    100.00% |           0      0.00%    100.00% |           0      0.00%    100.00% |           0      0.00%    100.00% |           0      0.00%    100.00% |           0      0.00%    100.00% |           0      0.00%    100.00% |           0      0.00%    100.00% |           0      0.00%    100.00%
system.ruby.SimicsNetworkPortInterface_Controller.A.MessageSend::total      2347122                      
system.ruby.SimicsNetworkPortInterface_Controller.A.MessageRecv |      464820     19.80%     19.80% |     1173561     50.00%     69.80% |       87796      3.74%     73.54% |       94327      4.02%     77.56% |       88754      3.78%     81.34% |       93569      3.99%     85.33% |       89406      3.81%     89.14% |       95866      4.08%     93.22% |       76716      3.27%     96.49% |       82307      3.51%    100.00% |           0      0.00%    100.00% |           0      0.00%    100.00% |           0      0.00%    100.00% |           0      0.00%    100.00% |           0      0.00%    100.00% |           0      0.00%    100.00% |           0      0.00%    100.00% |           0      0.00%    100.00% |           0      0.00%    100.00% |           0      0.00%    100.00% |           0      0.00%    100.00% |           0      0.00%    100.00% |           0      0.00%    100.00% |           0      0.00%    100.00% |           0      0.00%    100.00% |           0      0.00%    100.00% |           0      0.00%    100.00% |           0      0.00%    100.00% |           0      0.00%    100.00% |           0      0.00%    100.00% |           0      0.00%    100.00% |           0      0.00%    100.00%
system.ruby.SimicsNetworkPortInterface_Controller.A.MessageRecv::total      2347122                      
system.switch_cpus.kern.inst.arm                    0                       # number of arm instructions executed
system.switch_cpus.kern.inst.quiesce                0                       # number of quiesce instructions executed

---------- End Simulation Statistics   ----------
