
---------- Begin Simulation Statistics ----------
sim_seconds                                  0.130951                       # Number of seconds simulated
sim_ticks                                130950907000                       # Number of ticks simulated
final_tick                               5307118985500                       # Number of ticks from beginning of simulation (restored from checkpoints and never reset)
sim_freq                                 1000000000000                       # Frequency of simulated ticks
host_inst_rate                                  34809                       # Simulator instruction rate (inst/s)
host_op_rate                                    60047                       # Simulator op (including micro ops) rate (op/s)
host_tick_rate                              105884567                       # Simulator tick rate (ticks/s)
host_mem_usage                                3691748                       # Number of bytes of host memory used
host_seconds                                  1236.73                       # Real time elapsed on the host
sim_insts                                    43049212                       # Number of instructions simulated
sim_ops                                      74262578                       # Number of ops (including micro ops) simulated
system.voltage_domain.voltage                       1                       # Voltage in Volts
system.clk_domain.clock                           500                       # Clock period in ticks
system.mem_ctrls0.bytes_read::ruby.dir_cntrl0     21427328                       # Number of bytes read from this memory
system.mem_ctrls0.bytes_read::total          21427328                       # Number of bytes read from this memory
system.mem_ctrls0.bytes_written::ruby.dir_cntrl0     13546496                       # Number of bytes written to this memory
system.mem_ctrls0.bytes_written::total       13546496                       # Number of bytes written to this memory
system.mem_ctrls0.num_reads::ruby.dir_cntrl0       334802                       # Number of read requests responded to by this memory
system.mem_ctrls0.num_reads::total             334802                       # Number of read requests responded to by this memory
system.mem_ctrls0.num_writes::ruby.dir_cntrl0       211664                       # Number of write requests responded to by this memory
system.mem_ctrls0.num_writes::total            211664                       # Number of write requests responded to by this memory
system.mem_ctrls0.bw_read::ruby.dir_cntrl0    163628710                       # Total read bandwidth from this memory (bytes/s)
system.mem_ctrls0.bw_read::total            163628710                       # Total read bandwidth from this memory (bytes/s)
system.mem_ctrls0.bw_write::ruby.dir_cntrl0    103447134                       # Write bandwidth from this memory (bytes/s)
system.mem_ctrls0.bw_write::total           103447134                       # Write bandwidth from this memory (bytes/s)
system.mem_ctrls0.bw_total::ruby.dir_cntrl0    267075844                       # Total bandwidth to/from this memory (bytes/s)
system.mem_ctrls0.bw_total::total           267075844                       # Total bandwidth to/from this memory (bytes/s)
system.mem_ctrls0.readReqs                     334802                       # Number of read requests accepted
system.mem_ctrls0.writeReqs                    211664                       # Number of write requests accepted
system.mem_ctrls0.readBursts                   334802                       # Number of DRAM read bursts, including those serviced by the write queue
system.mem_ctrls0.writeBursts                  211664                       # Number of DRAM write bursts, including those merged in the write queue
system.mem_ctrls0.bytesReadDRAM              21426048                       # Total number of bytes read from DRAM
system.mem_ctrls0.bytesReadWrQ                   1280                       # Total number of bytes read from write queue
system.mem_ctrls0.bytesWritten               13546304                       # Total number of bytes written to DRAM
system.mem_ctrls0.bytesReadSys               21427328                       # Total read bytes from the system interface side
system.mem_ctrls0.bytesWrittenSys            13546496                       # Total written bytes from the system interface side
system.mem_ctrls0.servicedByWrQ                    20                       # Number of DRAM read bursts serviced by the write queue
system.mem_ctrls0.mergedWrBursts                    0                       # Number of DRAM write bursts merged with an existing one
system.mem_ctrls0.neitherReadNorWriteReqs            0                       # Number of requests that are neither read nor write
system.mem_ctrls0.perBankRdBursts::0            20666                       # Per bank write bursts
system.mem_ctrls0.perBankRdBursts::1            21291                       # Per bank write bursts
system.mem_ctrls0.perBankRdBursts::2            20864                       # Per bank write bursts
system.mem_ctrls0.perBankRdBursts::3            21330                       # Per bank write bursts
system.mem_ctrls0.perBankRdBursts::4            20936                       # Per bank write bursts
system.mem_ctrls0.perBankRdBursts::5            21141                       # Per bank write bursts
system.mem_ctrls0.perBankRdBursts::6            21035                       # Per bank write bursts
system.mem_ctrls0.perBankRdBursts::7            21030                       # Per bank write bursts
system.mem_ctrls0.perBankRdBursts::8            20822                       # Per bank write bursts
system.mem_ctrls0.perBankRdBursts::9            21025                       # Per bank write bursts
system.mem_ctrls0.perBankRdBursts::10           20782                       # Per bank write bursts
system.mem_ctrls0.perBankRdBursts::11           21175                       # Per bank write bursts
system.mem_ctrls0.perBankRdBursts::12           20637                       # Per bank write bursts
system.mem_ctrls0.perBankRdBursts::13           20542                       # Per bank write bursts
system.mem_ctrls0.perBankRdBursts::14           20753                       # Per bank write bursts
system.mem_ctrls0.perBankRdBursts::15           20753                       # Per bank write bursts
system.mem_ctrls0.perBankWrBursts::0            13274                       # Per bank write bursts
system.mem_ctrls0.perBankWrBursts::1            13232                       # Per bank write bursts
system.mem_ctrls0.perBankWrBursts::2            13153                       # Per bank write bursts
system.mem_ctrls0.perBankWrBursts::3            13367                       # Per bank write bursts
system.mem_ctrls0.perBankWrBursts::4            13195                       # Per bank write bursts
system.mem_ctrls0.perBankWrBursts::5            13319                       # Per bank write bursts
system.mem_ctrls0.perBankWrBursts::6            13247                       # Per bank write bursts
system.mem_ctrls0.perBankWrBursts::7            13441                       # Per bank write bursts
system.mem_ctrls0.perBankWrBursts::8            13155                       # Per bank write bursts
system.mem_ctrls0.perBankWrBursts::9            13376                       # Per bank write bursts
system.mem_ctrls0.perBankWrBursts::10           13162                       # Per bank write bursts
system.mem_ctrls0.perBankWrBursts::11           13100                       # Per bank write bursts
system.mem_ctrls0.perBankWrBursts::12           13064                       # Per bank write bursts
system.mem_ctrls0.perBankWrBursts::13           13071                       # Per bank write bursts
system.mem_ctrls0.perBankWrBursts::14           13359                       # Per bank write bursts
system.mem_ctrls0.perBankWrBursts::15           13146                       # Per bank write bursts
system.mem_ctrls0.numRdRetry                     3308                       # Number of times read queue was full causing retry
system.mem_ctrls0.numWrRetry                     2390                       # Number of times write queue was full causing retry
system.mem_ctrls0.totGap                 130950409000                       # Total gap between requests
system.mem_ctrls0.readPktSize::0                    0                       # Read request sizes (log2)
system.mem_ctrls0.readPktSize::1                    0                       # Read request sizes (log2)
system.mem_ctrls0.readPktSize::2                    0                       # Read request sizes (log2)
system.mem_ctrls0.readPktSize::3                    0                       # Read request sizes (log2)
system.mem_ctrls0.readPktSize::4                    0                       # Read request sizes (log2)
system.mem_ctrls0.readPktSize::5                    0                       # Read request sizes (log2)
system.mem_ctrls0.readPktSize::6               334802                       # Read request sizes (log2)
system.mem_ctrls0.writePktSize::0                   0                       # Write request sizes (log2)
system.mem_ctrls0.writePktSize::1                   0                       # Write request sizes (log2)
system.mem_ctrls0.writePktSize::2                   0                       # Write request sizes (log2)
system.mem_ctrls0.writePktSize::3                   0                       # Write request sizes (log2)
system.mem_ctrls0.writePktSize::4                   0                       # Write request sizes (log2)
system.mem_ctrls0.writePktSize::5                   0                       # Write request sizes (log2)
system.mem_ctrls0.writePktSize::6              211664                       # Write request sizes (log2)
system.mem_ctrls0.rdQLenPdf::0                 177838                       # What read queue length does an incoming req see
system.mem_ctrls0.rdQLenPdf::1                   9476                       # What read queue length does an incoming req see
system.mem_ctrls0.rdQLenPdf::2                   8067                       # What read queue length does an incoming req see
system.mem_ctrls0.rdQLenPdf::3                   7440                       # What read queue length does an incoming req see
system.mem_ctrls0.rdQLenPdf::4                   8184                       # What read queue length does an incoming req see
system.mem_ctrls0.rdQLenPdf::5                   8648                       # What read queue length does an incoming req see
system.mem_ctrls0.rdQLenPdf::6                   9208                       # What read queue length does an incoming req see
system.mem_ctrls0.rdQLenPdf::7                   9572                       # What read queue length does an incoming req see
system.mem_ctrls0.rdQLenPdf::8                   9608                       # What read queue length does an incoming req see
system.mem_ctrls0.rdQLenPdf::9                   9633                       # What read queue length does an incoming req see
system.mem_ctrls0.rdQLenPdf::10                  9091                       # What read queue length does an incoming req see
system.mem_ctrls0.rdQLenPdf::11                  8575                       # What read queue length does an incoming req see
system.mem_ctrls0.rdQLenPdf::12                  7774                       # What read queue length does an incoming req see
system.mem_ctrls0.rdQLenPdf::13                  6993                       # What read queue length does an incoming req see
system.mem_ctrls0.rdQLenPdf::14                  6151                       # What read queue length does an incoming req see
system.mem_ctrls0.rdQLenPdf::15                  5288                       # What read queue length does an incoming req see
system.mem_ctrls0.rdQLenPdf::16                  4479                       # What read queue length does an incoming req see
system.mem_ctrls0.rdQLenPdf::17                  3980                       # What read queue length does an incoming req see
system.mem_ctrls0.rdQLenPdf::18                  3500                       # What read queue length does an incoming req see
system.mem_ctrls0.rdQLenPdf::19                  2973                       # What read queue length does an incoming req see
system.mem_ctrls0.rdQLenPdf::20                  2609                       # What read queue length does an incoming req see
system.mem_ctrls0.rdQLenPdf::21                  2186                       # What read queue length does an incoming req see
system.mem_ctrls0.rdQLenPdf::22                  1823                       # What read queue length does an incoming req see
system.mem_ctrls0.rdQLenPdf::23                  1579                       # What read queue length does an incoming req see
system.mem_ctrls0.rdQLenPdf::24                  1398                       # What read queue length does an incoming req see
system.mem_ctrls0.rdQLenPdf::25                  1127                       # What read queue length does an incoming req see
system.mem_ctrls0.rdQLenPdf::26                   963                       # What read queue length does an incoming req see
system.mem_ctrls0.rdQLenPdf::27                   830                       # What read queue length does an incoming req see
system.mem_ctrls0.rdQLenPdf::28                   712                       # What read queue length does an incoming req see
system.mem_ctrls0.rdQLenPdf::29                   608                       # What read queue length does an incoming req see
system.mem_ctrls0.rdQLenPdf::30                   574                       # What read queue length does an incoming req see
system.mem_ctrls0.rdQLenPdf::31                  3895                       # What read queue length does an incoming req see
system.mem_ctrls0.wrQLenPdf::0                  38043                       # What write queue length does an incoming req see
system.mem_ctrls0.wrQLenPdf::1                  39515                       # What write queue length does an incoming req see
system.mem_ctrls0.wrQLenPdf::2                  40110                       # What write queue length does an incoming req see
system.mem_ctrls0.wrQLenPdf::3                  40314                       # What write queue length does an incoming req see
system.mem_ctrls0.wrQLenPdf::4                  40090                       # What write queue length does an incoming req see
system.mem_ctrls0.wrQLenPdf::5                   4569                       # What write queue length does an incoming req see
system.mem_ctrls0.wrQLenPdf::6                   4282                       # What write queue length does an incoming req see
system.mem_ctrls0.wrQLenPdf::7                   4741                       # What write queue length does an incoming req see
system.mem_ctrls0.bytesPerActivate::samples       148409                       # Bytes accessed per row activation
system.mem_ctrls0.bytesPerActivate::mean   235.644146                       # Bytes accessed per row activation
system.mem_ctrls0.bytesPerActivate::gmean   170.752201                       # Bytes accessed per row activation
system.mem_ctrls0.bytesPerActivate::stdev   202.219711                       # Bytes accessed per row activation
system.mem_ctrls0.bytesPerActivate::0-127        49830     33.58%     33.58% # Bytes accessed per row activation
system.mem_ctrls0.bytesPerActivate::128-255        28958     19.51%     53.09% # Bytes accessed per row activation
system.mem_ctrls0.bytesPerActivate::256-383        52432     35.33%     88.42% # Bytes accessed per row activation
system.mem_ctrls0.bytesPerActivate::384-511         5480      3.69%     92.11% # Bytes accessed per row activation
system.mem_ctrls0.bytesPerActivate::512-639         3522      2.37%     94.48% # Bytes accessed per row activation
system.mem_ctrls0.bytesPerActivate::640-767         2183      1.47%     95.95% # Bytes accessed per row activation
system.mem_ctrls0.bytesPerActivate::768-895         1288      0.87%     96.82% # Bytes accessed per row activation
system.mem_ctrls0.bytesPerActivate::896-1023         1006      0.68%     97.50% # Bytes accessed per row activation
system.mem_ctrls0.bytesPerActivate::1024-1151         3710      2.50%    100.00% # Bytes accessed per row activation
system.mem_ctrls0.bytesPerActivate::total       148409                       # Bytes accessed per row activation
system.mem_ctrls0.rdPerTurnAround::samples        38390                       # Reads before turning the bus around for writes
system.mem_ctrls0.rdPerTurnAround::mean      8.720422                       # Reads before turning the bus around for writes
system.mem_ctrls0.rdPerTurnAround::stdev    24.156499                       # Reads before turning the bus around for writes
system.mem_ctrls0.rdPerTurnAround::0-127        38342     99.87%     99.87% # Reads before turning the bus around for writes
system.mem_ctrls0.rdPerTurnAround::128-255           45      0.12%     99.99% # Reads before turning the bus around for writes
system.mem_ctrls0.rdPerTurnAround::256-383            2      0.01%    100.00% # Reads before turning the bus around for writes
system.mem_ctrls0.rdPerTurnAround::3968-4095            1      0.00%    100.00% # Reads before turning the bus around for writes
system.mem_ctrls0.rdPerTurnAround::total        38390                       # Reads before turning the bus around for writes
system.mem_ctrls0.wrPerTurnAround::samples        38390                       # Writes before turning the bus around for reads
system.mem_ctrls0.wrPerTurnAround::mean      5.513441                       # Writes before turning the bus around for reads
system.mem_ctrls0.wrPerTurnAround::gmean     5.351638                       # Writes before turning the bus around for reads
system.mem_ctrls0.wrPerTurnAround::stdev     1.774172                       # Writes before turning the bus around for reads
system.mem_ctrls0.wrPerTurnAround::4-7          35683     92.95%     92.95% # Writes before turning the bus around for reads
system.mem_ctrls0.wrPerTurnAround::8-11          1694      4.41%     97.36% # Writes before turning the bus around for reads
system.mem_ctrls0.wrPerTurnAround::12-15          549      1.43%     98.79% # Writes before turning the bus around for reads
system.mem_ctrls0.wrPerTurnAround::16-19          464      1.21%    100.00% # Writes before turning the bus around for reads
system.mem_ctrls0.wrPerTurnAround::total        38390                       # Writes before turning the bus around for reads
system.mem_ctrls0.totQLat                 17139394858                       # Total ticks spent queuing
system.mem_ctrls0.totMemAccLat            23416557358                       # Total ticks spent from burst creation until serviced by the DRAM
system.mem_ctrls0.totBusLat                1673910000                       # Total ticks spent in databus transfers
system.mem_ctrls0.avgQLat                    51195.69                       # Average queueing delay per DRAM burst
system.mem_ctrls0.avgBusLat                   5000.00                       # Average bus latency per DRAM burst
system.mem_ctrls0.avgMemAccLat               69945.69                       # Average memory access latency per DRAM burst
system.mem_ctrls0.avgRdBW                      163.62                       # Average DRAM read bandwidth in MiByte/s
system.mem_ctrls0.avgWrBW                      103.45                       # Average achieved write bandwidth in MiByte/s
system.mem_ctrls0.avgRdBWSys                   163.63                       # Average system read bandwidth in MiByte/s
system.mem_ctrls0.avgWrBWSys                   103.45                       # Average system write bandwidth in MiByte/s
system.mem_ctrls0.peakBW                     12800.00                       # Theoretical peak bandwidth in MiByte/s
system.mem_ctrls0.busUtil                        2.09                       # Data bus utilization in percentage
system.mem_ctrls0.busUtilRead                    1.28                       # Data bus utilization in percentage for reads
system.mem_ctrls0.busUtilWrite                   0.81                       # Data bus utilization in percentage for writes
system.mem_ctrls0.avgRdQLen                      1.15                       # Average read queue length when enqueuing
system.mem_ctrls0.avgWrQLen                      2.96                       # Average write queue length when enqueuing
system.mem_ctrls0.readRowHits                  256079                       # Number of row buffer hits during reads
system.mem_ctrls0.writeRowHits                 141947                       # Number of row buffer hits during writes
system.mem_ctrls0.readRowHitRate                76.49                       # Row buffer hit rate for reads
system.mem_ctrls0.writeRowHitRate               67.06                       # Row buffer hit rate for writes
system.mem_ctrls0.avgGap                    239631.39                       # Average gap between requests
system.mem_ctrls0.pageHitRate                   72.84                       # Row buffer hit rate, read and write combined
system.mem_ctrls0.memoryStateTime::IDLE   28041392250                       # Time in different power states
system.mem_ctrls0.memoryStateTime::REF     4372680000                       # Time in different power states
system.mem_ctrls0.memoryStateTime::PRE_PDN            0                       # Time in different power states
system.mem_ctrls0.memoryStateTime::ACT    98535354000                       # Time in different power states
system.mem_ctrls0.memoryStateTime::ACT_PDN            0                       # Time in different power states
system.mem_ctrls0.actEnergy::0              567982800                       # Energy for activate commands per rank (pJ)
system.mem_ctrls0.actEnergy::1              553974120                       # Energy for activate commands per rank (pJ)
system.mem_ctrls0.preEnergy::0              309911250                       # Energy for precharge commands per rank (pJ)
system.mem_ctrls0.preEnergy::1              302267625                       # Energy for precharge commands per rank (pJ)
system.mem_ctrls0.readEnergy::0            1312677600                       # Energy for read commands per rank (pJ)
system.mem_ctrls0.readEnergy::1            1298567400                       # Energy for read commands per rank (pJ)
system.mem_ctrls0.writeEnergy::0            688338000                       # Energy for write commands per rank (pJ)
system.mem_ctrls0.writeEnergy::1            683192880                       # Energy for write commands per rank (pJ)
system.mem_ctrls0.refreshEnergy::0         8552962080                       # Energy for refresh commands per rank (pJ)
system.mem_ctrls0.refreshEnergy::1         8552962080                       # Energy for refresh commands per rank (pJ)
system.mem_ctrls0.actBackEnergy::0        49874675670                       # Energy for active background per rank (pJ)
system.mem_ctrls0.actBackEnergy::1        49441194945                       # Energy for active background per rank (pJ)
system.mem_ctrls0.preBackEnergy::0        34819932000                       # Energy for precharge background per rank (pJ)
system.mem_ctrls0.preBackEnergy::1        35200178250                       # Energy for precharge background per rank (pJ)
system.mem_ctrls0.totalEnergy::0          96126479400                       # Total energy per rank (pJ)
system.mem_ctrls0.totalEnergy::1          96032337300                       # Total energy per rank (pJ)
system.mem_ctrls0.averagePower::0          734.073392                       # Core power per rank (mW)
system.mem_ctrls0.averagePower::1          733.354472                       # Core power per rank (mW)
system.mem_ctrls1.bytes_read::ruby.dir_cntrl1     20792128                       # Number of bytes read from this memory
system.mem_ctrls1.bytes_read::total          20792128                       # Number of bytes read from this memory
system.mem_ctrls1.bytes_written::ruby.dir_cntrl1     12922048                       # Number of bytes written to this memory
system.mem_ctrls1.bytes_written::total       12922048                       # Number of bytes written to this memory
system.mem_ctrls1.num_reads::ruby.dir_cntrl1       324877                       # Number of read requests responded to by this memory
system.mem_ctrls1.num_reads::total             324877                       # Number of read requests responded to by this memory
system.mem_ctrls1.num_writes::ruby.dir_cntrl1       201907                       # Number of write requests responded to by this memory
system.mem_ctrls1.num_writes::total            201907                       # Number of write requests responded to by this memory
system.mem_ctrls1.bw_read::ruby.dir_cntrl1    158778037                       # Total read bandwidth from this memory (bytes/s)
system.mem_ctrls1.bw_read::total            158778037                       # Total read bandwidth from this memory (bytes/s)
system.mem_ctrls1.bw_write::ruby.dir_cntrl1     98678568                       # Write bandwidth from this memory (bytes/s)
system.mem_ctrls1.bw_write::total            98678568                       # Write bandwidth from this memory (bytes/s)
system.mem_ctrls1.bw_total::ruby.dir_cntrl1    257456605                       # Total bandwidth to/from this memory (bytes/s)
system.mem_ctrls1.bw_total::total           257456605                       # Total bandwidth to/from this memory (bytes/s)
system.mem_ctrls1.readReqs                     324877                       # Number of read requests accepted
system.mem_ctrls1.writeReqs                    201907                       # Number of write requests accepted
system.mem_ctrls1.readBursts                   324877                       # Number of DRAM read bursts, including those serviced by the write queue
system.mem_ctrls1.writeBursts                  201907                       # Number of DRAM write bursts, including those merged in the write queue
system.mem_ctrls1.bytesReadDRAM              20790848                       # Total number of bytes read from DRAM
system.mem_ctrls1.bytesReadWrQ                   1280                       # Total number of bytes read from write queue
system.mem_ctrls1.bytesWritten               12922048                       # Total number of bytes written to DRAM
system.mem_ctrls1.bytesReadSys               20792128                       # Total read bytes from the system interface side
system.mem_ctrls1.bytesWrittenSys            12922048                       # Total written bytes from the system interface side
system.mem_ctrls1.servicedByWrQ                    20                       # Number of DRAM read bursts serviced by the write queue
system.mem_ctrls1.mergedWrBursts                    0                       # Number of DRAM write bursts merged with an existing one
system.mem_ctrls1.neitherReadNorWriteReqs            0                       # Number of requests that are neither read nor write
system.mem_ctrls1.perBankRdBursts::0            20060                       # Per bank write bursts
system.mem_ctrls1.perBankRdBursts::1            20697                       # Per bank write bursts
system.mem_ctrls1.perBankRdBursts::2            20234                       # Per bank write bursts
system.mem_ctrls1.perBankRdBursts::3            20674                       # Per bank write bursts
system.mem_ctrls1.perBankRdBursts::4            20367                       # Per bank write bursts
system.mem_ctrls1.perBankRdBursts::5            20527                       # Per bank write bursts
system.mem_ctrls1.perBankRdBursts::6            20415                       # Per bank write bursts
system.mem_ctrls1.perBankRdBursts::7            20500                       # Per bank write bursts
system.mem_ctrls1.perBankRdBursts::8            20186                       # Per bank write bursts
system.mem_ctrls1.perBankRdBursts::9            20382                       # Per bank write bursts
system.mem_ctrls1.perBankRdBursts::10           20145                       # Per bank write bursts
system.mem_ctrls1.perBankRdBursts::11           20570                       # Per bank write bursts
system.mem_ctrls1.perBankRdBursts::12           20013                       # Per bank write bursts
system.mem_ctrls1.perBankRdBursts::13           19883                       # Per bank write bursts
system.mem_ctrls1.perBankRdBursts::14           20071                       # Per bank write bursts
system.mem_ctrls1.perBankRdBursts::15           20133                       # Per bank write bursts
system.mem_ctrls1.perBankWrBursts::0            12669                       # Per bank write bursts
system.mem_ctrls1.perBankWrBursts::1            12643                       # Per bank write bursts
system.mem_ctrls1.perBankWrBursts::2            12550                       # Per bank write bursts
system.mem_ctrls1.perBankWrBursts::3            12757                       # Per bank write bursts
system.mem_ctrls1.perBankWrBursts::4            12596                       # Per bank write bursts
system.mem_ctrls1.perBankWrBursts::5            12721                       # Per bank write bursts
system.mem_ctrls1.perBankWrBursts::6            12630                       # Per bank write bursts
system.mem_ctrls1.perBankWrBursts::7            12827                       # Per bank write bursts
system.mem_ctrls1.perBankWrBursts::8            12539                       # Per bank write bursts
system.mem_ctrls1.perBankWrBursts::9            12757                       # Per bank write bursts
system.mem_ctrls1.perBankWrBursts::10           12553                       # Per bank write bursts
system.mem_ctrls1.perBankWrBursts::11           12492                       # Per bank write bursts
system.mem_ctrls1.perBankWrBursts::12           12465                       # Per bank write bursts
system.mem_ctrls1.perBankWrBursts::13           12462                       # Per bank write bursts
system.mem_ctrls1.perBankWrBursts::14           12704                       # Per bank write bursts
system.mem_ctrls1.perBankWrBursts::15           12542                       # Per bank write bursts
system.mem_ctrls1.numRdRetry                      598                       # Number of times read queue was full causing retry
system.mem_ctrls1.numWrRetry                     1999                       # Number of times write queue was full causing retry
system.mem_ctrls1.totGap                 130950130000                       # Total gap between requests
system.mem_ctrls1.readPktSize::0                    0                       # Read request sizes (log2)
system.mem_ctrls1.readPktSize::1                    0                       # Read request sizes (log2)
system.mem_ctrls1.readPktSize::2                    0                       # Read request sizes (log2)
system.mem_ctrls1.readPktSize::3                    0                       # Read request sizes (log2)
system.mem_ctrls1.readPktSize::4                    0                       # Read request sizes (log2)
system.mem_ctrls1.readPktSize::5                    0                       # Read request sizes (log2)
system.mem_ctrls1.readPktSize::6               324877                       # Read request sizes (log2)
system.mem_ctrls1.writePktSize::0                   0                       # Write request sizes (log2)
system.mem_ctrls1.writePktSize::1                   0                       # Write request sizes (log2)
system.mem_ctrls1.writePktSize::2                   0                       # Write request sizes (log2)
system.mem_ctrls1.writePktSize::3                   0                       # Write request sizes (log2)
system.mem_ctrls1.writePktSize::4                   0                       # Write request sizes (log2)
system.mem_ctrls1.writePktSize::5                   0                       # Write request sizes (log2)
system.mem_ctrls1.writePktSize::6              201907                       # Write request sizes (log2)
system.mem_ctrls1.rdQLenPdf::0                 173371                       # What read queue length does an incoming req see
system.mem_ctrls1.rdQLenPdf::1                   6449                       # What read queue length does an incoming req see
system.mem_ctrls1.rdQLenPdf::2                   7332                       # What read queue length does an incoming req see
system.mem_ctrls1.rdQLenPdf::3                   8202                       # What read queue length does an incoming req see
system.mem_ctrls1.rdQLenPdf::4                   8794                       # What read queue length does an incoming req see
system.mem_ctrls1.rdQLenPdf::5                   9385                       # What read queue length does an incoming req see
system.mem_ctrls1.rdQLenPdf::6                   9673                       # What read queue length does an incoming req see
system.mem_ctrls1.rdQLenPdf::7                  10087                       # What read queue length does an incoming req see
system.mem_ctrls1.rdQLenPdf::8                  10128                       # What read queue length does an incoming req see
system.mem_ctrls1.rdQLenPdf::9                   9773                       # What read queue length does an incoming req see
system.mem_ctrls1.rdQLenPdf::10                  9325                       # What read queue length does an incoming req see
system.mem_ctrls1.rdQLenPdf::11                  8512                       # What read queue length does an incoming req see
system.mem_ctrls1.rdQLenPdf::12                  7879                       # What read queue length does an incoming req see
system.mem_ctrls1.rdQLenPdf::13                  6981                       # What read queue length does an incoming req see
system.mem_ctrls1.rdQLenPdf::14                  5941                       # What read queue length does an incoming req see
system.mem_ctrls1.rdQLenPdf::15                  4972                       # What read queue length does an incoming req see
system.mem_ctrls1.rdQLenPdf::16                  4331                       # What read queue length does an incoming req see
system.mem_ctrls1.rdQLenPdf::17                  3818                       # What read queue length does an incoming req see
system.mem_ctrls1.rdQLenPdf::18                  3252                       # What read queue length does an incoming req see
system.mem_ctrls1.rdQLenPdf::19                  2774                       # What read queue length does an incoming req see
system.mem_ctrls1.rdQLenPdf::20                  2421                       # What read queue length does an incoming req see
system.mem_ctrls1.rdQLenPdf::21                  2101                       # What read queue length does an incoming req see
system.mem_ctrls1.rdQLenPdf::22                  1807                       # What read queue length does an incoming req see
system.mem_ctrls1.rdQLenPdf::23                  1517                       # What read queue length does an incoming req see
system.mem_ctrls1.rdQLenPdf::24                  1306                       # What read queue length does an incoming req see
system.mem_ctrls1.rdQLenPdf::25                  1038                       # What read queue length does an incoming req see
system.mem_ctrls1.rdQLenPdf::26                   849                       # What read queue length does an incoming req see
system.mem_ctrls1.rdQLenPdf::27                   685                       # What read queue length does an incoming req see
system.mem_ctrls1.rdQLenPdf::28                   532                       # What read queue length does an incoming req see
system.mem_ctrls1.rdQLenPdf::29                   436                       # What read queue length does an incoming req see
system.mem_ctrls1.rdQLenPdf::30                   323                       # What read queue length does an incoming req see
system.mem_ctrls1.rdQLenPdf::31                   863                       # What read queue length does an incoming req see
system.mem_ctrls1.wrQLenPdf::0                  36271                       # What write queue length does an incoming req see
system.mem_ctrls1.wrQLenPdf::1                  37605                       # What write queue length does an incoming req see
system.mem_ctrls1.wrQLenPdf::2                  38003                       # What write queue length does an incoming req see
system.mem_ctrls1.wrQLenPdf::3                  38326                       # What write queue length does an incoming req see
system.mem_ctrls1.wrQLenPdf::4                  38456                       # What write queue length does an incoming req see
system.mem_ctrls1.wrQLenPdf::5                   4689                       # What write queue length does an incoming req see
system.mem_ctrls1.wrQLenPdf::6                   4364                       # What write queue length does an incoming req see
system.mem_ctrls1.wrQLenPdf::7                   4193                       # What write queue length does an incoming req see
system.mem_ctrls1.bytesPerActivate::samples       123374                       # Bytes accessed per row activation
system.mem_ctrls1.bytesPerActivate::mean   273.254592                       # Bytes accessed per row activation
system.mem_ctrls1.bytesPerActivate::gmean   209.040544                       # Bytes accessed per row activation
system.mem_ctrls1.bytesPerActivate::stdev   210.367136                       # Bytes accessed per row activation
system.mem_ctrls1.bytesPerActivate::0-127        25003     20.27%     20.27% # Bytes accessed per row activation
system.mem_ctrls1.bytesPerActivate::128-255        28483     23.09%     43.35% # Bytes accessed per row activation
system.mem_ctrls1.bytesPerActivate::256-383        52020     42.16%     85.52% # Bytes accessed per row activation
system.mem_ctrls1.bytesPerActivate::384-511         5319      4.31%     89.83% # Bytes accessed per row activation
system.mem_ctrls1.bytesPerActivate::512-639         3819      3.10%     92.92% # Bytes accessed per row activation
system.mem_ctrls1.bytesPerActivate::640-767         2059      1.67%     94.59% # Bytes accessed per row activation
system.mem_ctrls1.bytesPerActivate::768-895         1432      1.16%     95.75% # Bytes accessed per row activation
system.mem_ctrls1.bytesPerActivate::896-1023         1046      0.85%     96.60% # Bytes accessed per row activation
system.mem_ctrls1.bytesPerActivate::1024-1151         4193      3.40%    100.00% # Bytes accessed per row activation
system.mem_ctrls1.bytesPerActivate::total       123374                       # Bytes accessed per row activation
system.mem_ctrls1.rdPerTurnAround::samples        36624                       # Reads before turning the bus around for writes
system.mem_ctrls1.rdPerTurnAround::mean      8.870031                       # Reads before turning the bus around for writes
system.mem_ctrls1.rdPerTurnAround::stdev    21.731787                       # Reads before turning the bus around for writes
system.mem_ctrls1.rdPerTurnAround::0-127        36528     99.74%     99.74% # Reads before turning the bus around for writes
system.mem_ctrls1.rdPerTurnAround::128-255           88      0.24%     99.98% # Reads before turning the bus around for writes
system.mem_ctrls1.rdPerTurnAround::256-383            6      0.02%     99.99% # Reads before turning the bus around for writes
system.mem_ctrls1.rdPerTurnAround::1152-1279            1      0.00%    100.00% # Reads before turning the bus around for writes
system.mem_ctrls1.rdPerTurnAround::2816-2943            1      0.00%    100.00% # Reads before turning the bus around for writes
system.mem_ctrls1.rdPerTurnAround::total        36624                       # Reads before turning the bus around for writes
system.mem_ctrls1.wrPerTurnAround::samples        36624                       # Writes before turning the bus around for reads
system.mem_ctrls1.wrPerTurnAround::mean      5.512970                       # Writes before turning the bus around for reads
system.mem_ctrls1.wrPerTurnAround::gmean     5.346585                       # Writes before turning the bus around for reads
system.mem_ctrls1.wrPerTurnAround::stdev     1.793749                       # Writes before turning the bus around for reads
system.mem_ctrls1.wrPerTurnAround::4-7          33825     92.36%     92.36% # Writes before turning the bus around for reads
system.mem_ctrls1.wrPerTurnAround::8-11          1787      4.88%     97.24% # Writes before turning the bus around for reads
system.mem_ctrls1.wrPerTurnAround::12-15          601      1.64%     98.88% # Writes before turning the bus around for reads
system.mem_ctrls1.wrPerTurnAround::16-19          411      1.12%    100.00% # Writes before turning the bus around for reads
system.mem_ctrls1.wrPerTurnAround::total        36624                       # Writes before turning the bus around for reads
system.mem_ctrls1.totQLat                 15329618723                       # Total ticks spent queuing
system.mem_ctrls1.totMemAccLat            21420687473                       # Total ticks spent from burst creation until serviced by the DRAM
system.mem_ctrls1.totBusLat                1624285000                       # Total ticks spent in databus transfers
system.mem_ctrls1.avgQLat                    47188.82                       # Average queueing delay per DRAM burst
system.mem_ctrls1.avgBusLat                   5000.00                       # Average bus latency per DRAM burst
system.mem_ctrls1.avgMemAccLat               65938.82                       # Average memory access latency per DRAM burst
system.mem_ctrls1.avgRdBW                      158.77                       # Average DRAM read bandwidth in MiByte/s
system.mem_ctrls1.avgWrBW                       98.68                       # Average achieved write bandwidth in MiByte/s
system.mem_ctrls1.avgRdBWSys                   158.78                       # Average system read bandwidth in MiByte/s
system.mem_ctrls1.avgWrBWSys                    98.68                       # Average system write bandwidth in MiByte/s
system.mem_ctrls1.peakBW                     12800.00                       # Theoretical peak bandwidth in MiByte/s
system.mem_ctrls1.busUtil                        2.01                       # Data bus utilization in percentage
system.mem_ctrls1.busUtilRead                    1.24                       # Data bus utilization in percentage for reads
system.mem_ctrls1.busUtilWrite                   0.77                       # Data bus utilization in percentage for writes
system.mem_ctrls1.avgRdQLen                      1.13                       # Average read queue length when enqueuing
system.mem_ctrls1.avgWrQLen                      2.98                       # Average write queue length when enqueuing
system.mem_ctrls1.readRowHits                  256943                       # Number of row buffer hits during reads
system.mem_ctrls1.writeRowHits                 146443                       # Number of row buffer hits during writes
system.mem_ctrls1.readRowHitRate                79.09                       # Row buffer hit rate for reads
system.mem_ctrls1.writeRowHitRate               72.53                       # Row buffer hit rate for writes
system.mem_ctrls1.avgGap                    248584.11                       # Average gap between requests
system.mem_ctrls1.pageHitRate                   76.58                       # Row buffer hit rate, read and write combined
system.mem_ctrls1.memoryStateTime::IDLE   28548945750                       # Time in different power states
system.mem_ctrls1.memoryStateTime::REF     4372680000                       # Time in different power states
system.mem_ctrls1.memoryStateTime::PRE_PDN            0                       # Time in different power states
system.mem_ctrls1.memoryStateTime::ACT    98027898250                       # Time in different power states
system.mem_ctrls1.memoryStateTime::ACT_PDN            0                       # Time in different power states
system.mem_ctrls1.actEnergy::0              473649120                       # Energy for activate commands per rank (pJ)
system.mem_ctrls1.actEnergy::1              459035640                       # Energy for activate commands per rank (pJ)
system.mem_ctrls1.preEnergy::0              258439500                       # Energy for precharge commands per rank (pJ)
system.mem_ctrls1.preEnergy::1              250465875                       # Energy for precharge commands per rank (pJ)
system.mem_ctrls1.readEnergy::0            1275073800                       # Energy for read commands per rank (pJ)
system.mem_ctrls1.readEnergy::1            1258740600                       # Energy for read commands per rank (pJ)
system.mem_ctrls1.writeEnergy::0            657020160                       # Energy for write commands per rank (pJ)
system.mem_ctrls1.writeEnergy::1            651304800                       # Energy for write commands per rank (pJ)
system.mem_ctrls1.refreshEnergy::0         8552962080                       # Energy for refresh commands per rank (pJ)
system.mem_ctrls1.refreshEnergy::1         8552962080                       # Energy for refresh commands per rank (pJ)
system.mem_ctrls1.actBackEnergy::0        49312474695                       # Energy for active background per rank (pJ)
system.mem_ctrls1.actBackEnergy::1        48372744195                       # Energy for active background per rank (pJ)
system.mem_ctrls1.preBackEnergy::0        35313090750                       # Energy for precharge background per rank (pJ)
system.mem_ctrls1.preBackEnergy::1        36137415750                       # Energy for precharge background per rank (pJ)
system.mem_ctrls1.totalEnergy::0          95842710105                       # Total energy per rank (pJ)
system.mem_ctrls1.totalEnergy::1          95682668940                       # Total energy per rank (pJ)
system.mem_ctrls1.averagePower::0          731.906377                       # Core power per rank (mW)
system.mem_ctrls1.averagePower::1          730.684217                       # Core power per rank (mW)
system.mem_ctrls2.bytes_read::ruby.dir_cntrl2     20790144                       # Number of bytes read from this memory
system.mem_ctrls2.bytes_read::total          20790144                       # Number of bytes read from this memory
system.mem_ctrls2.bytes_written::ruby.dir_cntrl2     12922752                       # Number of bytes written to this memory
system.mem_ctrls2.bytes_written::total       12922752                       # Number of bytes written to this memory
system.mem_ctrls2.num_reads::ruby.dir_cntrl2       324846                       # Number of read requests responded to by this memory
system.mem_ctrls2.num_reads::total             324846                       # Number of read requests responded to by this memory
system.mem_ctrls2.num_writes::ruby.dir_cntrl2       201918                       # Number of write requests responded to by this memory
system.mem_ctrls2.num_writes::total            201918                       # Number of write requests responded to by this memory
system.mem_ctrls2.bw_read::ruby.dir_cntrl2    158762887                       # Total read bandwidth from this memory (bytes/s)
system.mem_ctrls2.bw_read::total            158762887                       # Total read bandwidth from this memory (bytes/s)
system.mem_ctrls2.bw_write::ruby.dir_cntrl2     98683944                       # Write bandwidth from this memory (bytes/s)
system.mem_ctrls2.bw_write::total            98683944                       # Write bandwidth from this memory (bytes/s)
system.mem_ctrls2.bw_total::ruby.dir_cntrl2    257446831                       # Total bandwidth to/from this memory (bytes/s)
system.mem_ctrls2.bw_total::total           257446831                       # Total bandwidth to/from this memory (bytes/s)
system.mem_ctrls2.readReqs                     324846                       # Number of read requests accepted
system.mem_ctrls2.writeReqs                    201918                       # Number of write requests accepted
system.mem_ctrls2.readBursts                   324846                       # Number of DRAM read bursts, including those serviced by the write queue
system.mem_ctrls2.writeBursts                  201918                       # Number of DRAM write bursts, including those merged in the write queue
system.mem_ctrls2.bytesReadDRAM              20789120                       # Total number of bytes read from DRAM
system.mem_ctrls2.bytesReadWrQ                   1024                       # Total number of bytes read from write queue
system.mem_ctrls2.bytesWritten               12922560                       # Total number of bytes written to DRAM
system.mem_ctrls2.bytesReadSys               20790144                       # Total read bytes from the system interface side
system.mem_ctrls2.bytesWrittenSys            12922752                       # Total written bytes from the system interface side
system.mem_ctrls2.servicedByWrQ                    16                       # Number of DRAM read bursts serviced by the write queue
system.mem_ctrls2.mergedWrBursts                    0                       # Number of DRAM write bursts merged with an existing one
system.mem_ctrls2.neitherReadNorWriteReqs            0                       # Number of requests that are neither read nor write
system.mem_ctrls2.perBankRdBursts::0            20056                       # Per bank write bursts
system.mem_ctrls2.perBankRdBursts::1            20678                       # Per bank write bursts
system.mem_ctrls2.perBankRdBursts::2            20244                       # Per bank write bursts
system.mem_ctrls2.perBankRdBursts::3            20719                       # Per bank write bursts
system.mem_ctrls2.perBankRdBursts::4            20370                       # Per bank write bursts
system.mem_ctrls2.perBankRdBursts::5            20510                       # Per bank write bursts
system.mem_ctrls2.perBankRdBursts::6            20389                       # Per bank write bursts
system.mem_ctrls2.perBankRdBursts::7            20476                       # Per bank write bursts
system.mem_ctrls2.perBankRdBursts::8            20154                       # Per bank write bursts
system.mem_ctrls2.perBankRdBursts::9            20392                       # Per bank write bursts
system.mem_ctrls2.perBankRdBursts::10           20154                       # Per bank write bursts
system.mem_ctrls2.perBankRdBursts::11           20586                       # Per bank write bursts
system.mem_ctrls2.perBankRdBursts::12           20029                       # Per bank write bursts
system.mem_ctrls2.perBankRdBursts::13           19843                       # Per bank write bursts
system.mem_ctrls2.perBankRdBursts::14           20061                       # Per bank write bursts
system.mem_ctrls2.perBankRdBursts::15           20169                       # Per bank write bursts
system.mem_ctrls2.perBankWrBursts::0            12663                       # Per bank write bursts
system.mem_ctrls2.perBankWrBursts::1            12642                       # Per bank write bursts
system.mem_ctrls2.perBankWrBursts::2            12546                       # Per bank write bursts
system.mem_ctrls2.perBankWrBursts::3            12764                       # Per bank write bursts
system.mem_ctrls2.perBankWrBursts::4            12598                       # Per bank write bursts
system.mem_ctrls2.perBankWrBursts::5            12704                       # Per bank write bursts
system.mem_ctrls2.perBankWrBursts::6            12638                       # Per bank write bursts
system.mem_ctrls2.perBankWrBursts::7            12826                       # Per bank write bursts
system.mem_ctrls2.perBankWrBursts::8            12523                       # Per bank write bursts
system.mem_ctrls2.perBankWrBursts::9            12763                       # Per bank write bursts
system.mem_ctrls2.perBankWrBursts::10           12550                       # Per bank write bursts
system.mem_ctrls2.perBankWrBursts::11           12507                       # Per bank write bursts
system.mem_ctrls2.perBankWrBursts::12           12470                       # Per bank write bursts
system.mem_ctrls2.perBankWrBursts::13           12456                       # Per bank write bursts
system.mem_ctrls2.perBankWrBursts::14           12710                       # Per bank write bursts
system.mem_ctrls2.perBankWrBursts::15           12555                       # Per bank write bursts
system.mem_ctrls2.numRdRetry                      344                       # Number of times read queue was full causing retry
system.mem_ctrls2.numWrRetry                     2015                       # Number of times write queue was full causing retry
system.mem_ctrls2.totGap                 130950359000                       # Total gap between requests
system.mem_ctrls2.readPktSize::0                    0                       # Read request sizes (log2)
system.mem_ctrls2.readPktSize::1                    0                       # Read request sizes (log2)
system.mem_ctrls2.readPktSize::2                    0                       # Read request sizes (log2)
system.mem_ctrls2.readPktSize::3                    0                       # Read request sizes (log2)
system.mem_ctrls2.readPktSize::4                    0                       # Read request sizes (log2)
system.mem_ctrls2.readPktSize::5                    0                       # Read request sizes (log2)
system.mem_ctrls2.readPktSize::6               324846                       # Read request sizes (log2)
system.mem_ctrls2.writePktSize::0                   0                       # Write request sizes (log2)
system.mem_ctrls2.writePktSize::1                   0                       # Write request sizes (log2)
system.mem_ctrls2.writePktSize::2                   0                       # Write request sizes (log2)
system.mem_ctrls2.writePktSize::3                   0                       # Write request sizes (log2)
system.mem_ctrls2.writePktSize::4                   0                       # Write request sizes (log2)
system.mem_ctrls2.writePktSize::5                   0                       # Write request sizes (log2)
system.mem_ctrls2.writePktSize::6              201918                       # Write request sizes (log2)
system.mem_ctrls2.rdQLenPdf::0                 173528                       # What read queue length does an incoming req see
system.mem_ctrls2.rdQLenPdf::1                   6345                       # What read queue length does an incoming req see
system.mem_ctrls2.rdQLenPdf::2                   7650                       # What read queue length does an incoming req see
system.mem_ctrls2.rdQLenPdf::3                   8233                       # What read queue length does an incoming req see
system.mem_ctrls2.rdQLenPdf::4                   8886                       # What read queue length does an incoming req see
system.mem_ctrls2.rdQLenPdf::5                   9429                       # What read queue length does an incoming req see
system.mem_ctrls2.rdQLenPdf::6                   9947                       # What read queue length does an incoming req see
system.mem_ctrls2.rdQLenPdf::7                  10362                       # What read queue length does an incoming req see
system.mem_ctrls2.rdQLenPdf::8                  10300                       # What read queue length does an incoming req see
system.mem_ctrls2.rdQLenPdf::9                  10040                       # What read queue length does an incoming req see
system.mem_ctrls2.rdQLenPdf::10                  9321                       # What read queue length does an incoming req see
system.mem_ctrls2.rdQLenPdf::11                  8687                       # What read queue length does an incoming req see
system.mem_ctrls2.rdQLenPdf::12                  7888                       # What read queue length does an incoming req see
system.mem_ctrls2.rdQLenPdf::13                  6902                       # What read queue length does an incoming req see
system.mem_ctrls2.rdQLenPdf::14                  5900                       # What read queue length does an incoming req see
system.mem_ctrls2.rdQLenPdf::15                  5041                       # What read queue length does an incoming req see
system.mem_ctrls2.rdQLenPdf::16                  4343                       # What read queue length does an incoming req see
system.mem_ctrls2.rdQLenPdf::17                  3935                       # What read queue length does an incoming req see
system.mem_ctrls2.rdQLenPdf::18                  3213                       # What read queue length does an incoming req see
system.mem_ctrls2.rdQLenPdf::19                  2755                       # What read queue length does an incoming req see
system.mem_ctrls2.rdQLenPdf::20                  2310                       # What read queue length does an incoming req see
system.mem_ctrls2.rdQLenPdf::21                  1914                       # What read queue length does an incoming req see
system.mem_ctrls2.rdQLenPdf::22                  1614                       # What read queue length does an incoming req see
system.mem_ctrls2.rdQLenPdf::23                  1366                       # What read queue length does an incoming req see
system.mem_ctrls2.rdQLenPdf::24                  1092                       # What read queue length does an incoming req see
system.mem_ctrls2.rdQLenPdf::25                   962                       # What read queue length does an incoming req see
system.mem_ctrls2.rdQLenPdf::26                   758                       # What read queue length does an incoming req see
system.mem_ctrls2.rdQLenPdf::27                   553                       # What read queue length does an incoming req see
system.mem_ctrls2.rdQLenPdf::28                   439                       # What read queue length does an incoming req see
system.mem_ctrls2.rdQLenPdf::29                   335                       # What read queue length does an incoming req see
system.mem_ctrls2.rdQLenPdf::30                   260                       # What read queue length does an incoming req see
system.mem_ctrls2.rdQLenPdf::31                   522                       # What read queue length does an incoming req see
system.mem_ctrls2.wrQLenPdf::0                  36338                       # What write queue length does an incoming req see
system.mem_ctrls2.wrQLenPdf::1                  37719                       # What write queue length does an incoming req see
system.mem_ctrls2.wrQLenPdf::2                  38180                       # What write queue length does an incoming req see
system.mem_ctrls2.wrQLenPdf::3                  38357                       # What write queue length does an incoming req see
system.mem_ctrls2.wrQLenPdf::4                  38410                       # What write queue length does an incoming req see
system.mem_ctrls2.wrQLenPdf::5                   4539                       # What write queue length does an incoming req see
system.mem_ctrls2.wrQLenPdf::6                   4245                       # What write queue length does an incoming req see
system.mem_ctrls2.wrQLenPdf::7                   4130                       # What write queue length does an incoming req see
system.mem_ctrls2.bytesPerActivate::samples       123454                       # Bytes accessed per row activation
system.mem_ctrls2.bytesPerActivate::mean   273.067669                       # Bytes accessed per row activation
system.mem_ctrls2.bytesPerActivate::gmean   209.084893                       # Bytes accessed per row activation
system.mem_ctrls2.bytesPerActivate::stdev   209.493475                       # Bytes accessed per row activation
system.mem_ctrls2.bytesPerActivate::0-127        25220     20.43%     20.43% # Bytes accessed per row activation
system.mem_ctrls2.bytesPerActivate::128-255        27624     22.38%     42.80% # Bytes accessed per row activation
system.mem_ctrls2.bytesPerActivate::256-383        52893     42.84%     85.65% # Bytes accessed per row activation
system.mem_ctrls2.bytesPerActivate::384-511         5288      4.28%     89.93% # Bytes accessed per row activation
system.mem_ctrls2.bytesPerActivate::512-639         3783      3.06%     93.00% # Bytes accessed per row activation
system.mem_ctrls2.bytesPerActivate::640-767         2073      1.68%     94.68% # Bytes accessed per row activation
system.mem_ctrls2.bytesPerActivate::768-895         1384      1.12%     95.80% # Bytes accessed per row activation
system.mem_ctrls2.bytesPerActivate::896-1023         1010      0.82%     96.61% # Bytes accessed per row activation
system.mem_ctrls2.bytesPerActivate::1024-1151         4179      3.39%    100.00% # Bytes accessed per row activation
system.mem_ctrls2.bytesPerActivate::total       123454                       # Bytes accessed per row activation
system.mem_ctrls2.rdPerTurnAround::samples        36661                       # Reads before turning the bus around for writes
system.mem_ctrls2.rdPerTurnAround::mean      8.860287                       # Reads before turning the bus around for writes
system.mem_ctrls2.rdPerTurnAround::stdev    21.773630                       # Reads before turning the bus around for writes
system.mem_ctrls2.rdPerTurnAround::0-127        36573     99.76%     99.76% # Reads before turning the bus around for writes
system.mem_ctrls2.rdPerTurnAround::128-255           79      0.22%     99.98% # Reads before turning the bus around for writes
system.mem_ctrls2.rdPerTurnAround::256-383            6      0.02%     99.99% # Reads before turning the bus around for writes
system.mem_ctrls2.rdPerTurnAround::384-511            1      0.00%     99.99% # Reads before turning the bus around for writes
system.mem_ctrls2.rdPerTurnAround::1152-1279            1      0.00%    100.00% # Reads before turning the bus around for writes
system.mem_ctrls2.rdPerTurnAround::2816-2943            1      0.00%    100.00% # Reads before turning the bus around for writes
system.mem_ctrls2.rdPerTurnAround::total        36661                       # Reads before turning the bus around for writes
system.mem_ctrls2.wrPerTurnAround::samples        36661                       # Writes before turning the bus around for reads
system.mem_ctrls2.wrPerTurnAround::mean      5.507624                       # Writes before turning the bus around for reads
system.mem_ctrls2.wrPerTurnAround::gmean     5.344194                       # Writes before turning the bus around for reads
system.mem_ctrls2.wrPerTurnAround::stdev     1.773333                       # Writes before turning the bus around for reads
system.mem_ctrls2.wrPerTurnAround::4-7          33853     92.34%     92.34% # Writes before turning the bus around for reads
system.mem_ctrls2.wrPerTurnAround::8-11          1824      4.98%     97.32% # Writes before turning the bus around for reads
system.mem_ctrls2.wrPerTurnAround::12-15          593      1.62%     98.93% # Writes before turning the bus around for reads
system.mem_ctrls2.wrPerTurnAround::16-19          391      1.07%    100.00% # Writes before turning the bus around for reads
system.mem_ctrls2.wrPerTurnAround::total        36661                       # Writes before turning the bus around for reads
system.mem_ctrls2.totQLat                 14889788485                       # Total ticks spent queuing
system.mem_ctrls2.totMemAccLat            20980350985                       # Total ticks spent from burst creation until serviced by the DRAM
system.mem_ctrls2.totBusLat                1624150000                       # Total ticks spent in databus transfers
system.mem_ctrls2.avgQLat                    45838.71                       # Average queueing delay per DRAM burst
system.mem_ctrls2.avgBusLat                   5000.00                       # Average bus latency per DRAM burst
system.mem_ctrls2.avgMemAccLat               64588.71                       # Average memory access latency per DRAM burst
system.mem_ctrls2.avgRdBW                      158.76                       # Average DRAM read bandwidth in MiByte/s
system.mem_ctrls2.avgWrBW                       98.68                       # Average achieved write bandwidth in MiByte/s
system.mem_ctrls2.avgRdBWSys                   158.76                       # Average system read bandwidth in MiByte/s
system.mem_ctrls2.avgWrBWSys                    98.68                       # Average system write bandwidth in MiByte/s
system.mem_ctrls2.peakBW                     12800.00                       # Theoretical peak bandwidth in MiByte/s
system.mem_ctrls2.busUtil                        2.01                       # Data bus utilization in percentage
system.mem_ctrls2.busUtilRead                    1.24                       # Data bus utilization in percentage for reads
system.mem_ctrls2.busUtilWrite                   0.77                       # Data bus utilization in percentage for writes
system.mem_ctrls2.avgRdQLen                      1.13                       # Average read queue length when enqueuing
system.mem_ctrls2.avgWrQLen                      2.95                       # Average write queue length when enqueuing
system.mem_ctrls2.readRowHits                  256615                       # Number of row buffer hits during reads
system.mem_ctrls2.writeRowHits                 146672                       # Number of row buffer hits during writes
system.mem_ctrls2.readRowHitRate                79.00                       # Row buffer hit rate for reads
system.mem_ctrls2.writeRowHitRate               72.64                       # Row buffer hit rate for writes
system.mem_ctrls2.avgGap                    248593.98                       # Average gap between requests
system.mem_ctrls2.pageHitRate                   76.56                       # Row buffer hit rate, read and write combined
system.mem_ctrls2.memoryStateTime::IDLE   28403739750                       # Time in different power states
system.mem_ctrls2.memoryStateTime::REF     4372680000                       # Time in different power states
system.mem_ctrls2.memoryStateTime::PRE_PDN            0                       # Time in different power states
system.mem_ctrls2.memoryStateTime::ACT    98173202250                       # Time in different power states
system.mem_ctrls2.memoryStateTime::ACT_PDN            0                       # Time in different power states
system.mem_ctrls2.actEnergy::0              474533640                       # Energy for activate commands per rank (pJ)
system.mem_ctrls2.actEnergy::1              458755920                       # Energy for activate commands per rank (pJ)
system.mem_ctrls2.preEnergy::0              258922125                       # Energy for precharge commands per rank (pJ)
system.mem_ctrls2.preEnergy::1              250313250                       # Energy for precharge commands per rank (pJ)
system.mem_ctrls2.readEnergy::0            1274824200                       # Energy for read commands per rank (pJ)
system.mem_ctrls2.readEnergy::1            1258803000                       # Energy for read commands per rank (pJ)
system.mem_ctrls2.writeEnergy::0            656935920                       # Energy for write commands per rank (pJ)
system.mem_ctrls2.writeEnergy::1            651440880                       # Energy for write commands per rank (pJ)
system.mem_ctrls2.refreshEnergy::0         8552962080                       # Energy for refresh commands per rank (pJ)
system.mem_ctrls2.refreshEnergy::1         8552962080                       # Energy for refresh commands per rank (pJ)
system.mem_ctrls2.actBackEnergy::0        49044610035                       # Energy for active background per rank (pJ)
system.mem_ctrls2.actBackEnergy::1        48116882880                       # Energy for active background per rank (pJ)
system.mem_ctrls2.preBackEnergy::0        35548059750                       # Energy for precharge background per rank (pJ)
system.mem_ctrls2.preBackEnergy::1        36361855500                       # Energy for precharge background per rank (pJ)
system.mem_ctrls2.totalEnergy::0          95810847750                       # Total energy per rank (pJ)
system.mem_ctrls2.totalEnergy::1          95651013510                       # Total energy per rank (pJ)
system.mem_ctrls2.averagePower::0          731.663059                       # Core power per rank (mW)
system.mem_ctrls2.averagePower::1          730.442479                       # Core power per rank (mW)
system.mem_ctrls3.bytes_read::ruby.dir_cntrl3     20768960                       # Number of bytes read from this memory
system.mem_ctrls3.bytes_read::total          20768960                       # Number of bytes read from this memory
system.mem_ctrls3.bytes_written::ruby.dir_cntrl3     12921088                       # Number of bytes written to this memory
system.mem_ctrls3.bytes_written::total       12921088                       # Number of bytes written to this memory
system.mem_ctrls3.num_reads::ruby.dir_cntrl3       324515                       # Number of read requests responded to by this memory
system.mem_ctrls3.num_reads::total             324515                       # Number of read requests responded to by this memory
system.mem_ctrls3.num_writes::ruby.dir_cntrl3       201892                       # Number of write requests responded to by this memory
system.mem_ctrls3.num_writes::total            201892                       # Number of write requests responded to by this memory
system.mem_ctrls3.bw_read::ruby.dir_cntrl3    158601116                       # Total read bandwidth from this memory (bytes/s)
system.mem_ctrls3.bw_read::total            158601116                       # Total read bandwidth from this memory (bytes/s)
system.mem_ctrls3.bw_write::ruby.dir_cntrl3     98671237                       # Write bandwidth from this memory (bytes/s)
system.mem_ctrls3.bw_write::total            98671237                       # Write bandwidth from this memory (bytes/s)
system.mem_ctrls3.bw_total::ruby.dir_cntrl3    257272353                       # Total bandwidth to/from this memory (bytes/s)
system.mem_ctrls3.bw_total::total           257272353                       # Total bandwidth to/from this memory (bytes/s)
system.mem_ctrls3.readReqs                     324516                       # Number of read requests accepted
system.mem_ctrls3.writeReqs                    201892                       # Number of write requests accepted
system.mem_ctrls3.readBursts                   324516                       # Number of DRAM read bursts, including those serviced by the write queue
system.mem_ctrls3.writeBursts                  201892                       # Number of DRAM write bursts, including those merged in the write queue
system.mem_ctrls3.bytesReadDRAM              20768192                       # Total number of bytes read from DRAM
system.mem_ctrls3.bytesReadWrQ                    832                       # Total number of bytes read from write queue
system.mem_ctrls3.bytesWritten               12920832                       # Total number of bytes written to DRAM
system.mem_ctrls3.bytesReadSys               20769024                       # Total read bytes from the system interface side
system.mem_ctrls3.bytesWrittenSys            12921088                       # Total written bytes from the system interface side
system.mem_ctrls3.servicedByWrQ                    13                       # Number of DRAM read bursts serviced by the write queue
system.mem_ctrls3.mergedWrBursts                    0                       # Number of DRAM write bursts merged with an existing one
system.mem_ctrls3.neitherReadNorWriteReqs            0                       # Number of requests that are neither read nor write
system.mem_ctrls3.perBankRdBursts::0            20050                       # Per bank write bursts
system.mem_ctrls3.perBankRdBursts::1            20650                       # Per bank write bursts
system.mem_ctrls3.perBankRdBursts::2            20160                       # Per bank write bursts
system.mem_ctrls3.perBankRdBursts::3            20693                       # Per bank write bursts
system.mem_ctrls3.perBankRdBursts::4            20302                       # Per bank write bursts
system.mem_ctrls3.perBankRdBursts::5            20503                       # Per bank write bursts
system.mem_ctrls3.perBankRdBursts::6            20398                       # Per bank write bursts
system.mem_ctrls3.perBankRdBursts::7            20456                       # Per bank write bursts
system.mem_ctrls3.perBankRdBursts::8            20145                       # Per bank write bursts
system.mem_ctrls3.perBankRdBursts::9            20381                       # Per bank write bursts
system.mem_ctrls3.perBankRdBursts::10           20192                       # Per bank write bursts
system.mem_ctrls3.perBankRdBursts::11           20539                       # Per bank write bursts
system.mem_ctrls3.perBankRdBursts::12           19972                       # Per bank write bursts
system.mem_ctrls3.perBankRdBursts::13           19837                       # Per bank write bursts
system.mem_ctrls3.perBankRdBursts::14           20085                       # Per bank write bursts
system.mem_ctrls3.perBankRdBursts::15           20140                       # Per bank write bursts
system.mem_ctrls3.perBankWrBursts::0            12669                       # Per bank write bursts
system.mem_ctrls3.perBankWrBursts::1            12632                       # Per bank write bursts
system.mem_ctrls3.perBankWrBursts::2            12554                       # Per bank write bursts
system.mem_ctrls3.perBankWrBursts::3            12755                       # Per bank write bursts
system.mem_ctrls3.perBankWrBursts::4            12595                       # Per bank write bursts
system.mem_ctrls3.perBankWrBursts::5            12706                       # Per bank write bursts
system.mem_ctrls3.perBankWrBursts::6            12634                       # Per bank write bursts
system.mem_ctrls3.perBankWrBursts::7            12819                       # Per bank write bursts
system.mem_ctrls3.perBankWrBursts::8            12519                       # Per bank write bursts
system.mem_ctrls3.perBankWrBursts::9            12766                       # Per bank write bursts
system.mem_ctrls3.perBankWrBursts::10           12550                       # Per bank write bursts
system.mem_ctrls3.perBankWrBursts::11           12512                       # Per bank write bursts
system.mem_ctrls3.perBankWrBursts::12           12464                       # Per bank write bursts
system.mem_ctrls3.perBankWrBursts::13           12461                       # Per bank write bursts
system.mem_ctrls3.perBankWrBursts::14           12715                       # Per bank write bursts
system.mem_ctrls3.perBankWrBursts::15           12537                       # Per bank write bursts
system.mem_ctrls3.numRdRetry                      428                       # Number of times read queue was full causing retry
system.mem_ctrls3.numWrRetry                     2030                       # Number of times write queue was full causing retry
system.mem_ctrls3.totGap                 130950161000                       # Total gap between requests
system.mem_ctrls3.readPktSize::0                    0                       # Read request sizes (log2)
system.mem_ctrls3.readPktSize::1                    0                       # Read request sizes (log2)
system.mem_ctrls3.readPktSize::2                    0                       # Read request sizes (log2)
system.mem_ctrls3.readPktSize::3                    0                       # Read request sizes (log2)
system.mem_ctrls3.readPktSize::4                    0                       # Read request sizes (log2)
system.mem_ctrls3.readPktSize::5                    0                       # Read request sizes (log2)
system.mem_ctrls3.readPktSize::6               324516                       # Read request sizes (log2)
system.mem_ctrls3.writePktSize::0                   0                       # Write request sizes (log2)
system.mem_ctrls3.writePktSize::1                   0                       # Write request sizes (log2)
system.mem_ctrls3.writePktSize::2                   0                       # Write request sizes (log2)
system.mem_ctrls3.writePktSize::3                   0                       # Write request sizes (log2)
system.mem_ctrls3.writePktSize::4                   0                       # Write request sizes (log2)
system.mem_ctrls3.writePktSize::5                   0                       # Write request sizes (log2)
system.mem_ctrls3.writePktSize::6              201892                       # Write request sizes (log2)
system.mem_ctrls3.rdQLenPdf::0                 173187                       # What read queue length does an incoming req see
system.mem_ctrls3.rdQLenPdf::1                   6276                       # What read queue length does an incoming req see
system.mem_ctrls3.rdQLenPdf::2                   7493                       # What read queue length does an incoming req see
system.mem_ctrls3.rdQLenPdf::3                   8381                       # What read queue length does an incoming req see
system.mem_ctrls3.rdQLenPdf::4                   8980                       # What read queue length does an incoming req see
system.mem_ctrls3.rdQLenPdf::5                   9469                       # What read queue length does an incoming req see
system.mem_ctrls3.rdQLenPdf::6                   9865                       # What read queue length does an incoming req see
system.mem_ctrls3.rdQLenPdf::7                  10357                       # What read queue length does an incoming req see
system.mem_ctrls3.rdQLenPdf::8                  10500                       # What read queue length does an incoming req see
system.mem_ctrls3.rdQLenPdf::9                  10089                       # What read queue length does an incoming req see
system.mem_ctrls3.rdQLenPdf::10                  9545                       # What read queue length does an incoming req see
system.mem_ctrls3.rdQLenPdf::11                  8701                       # What read queue length does an incoming req see
system.mem_ctrls3.rdQLenPdf::12                  7740                       # What read queue length does an incoming req see
system.mem_ctrls3.rdQLenPdf::13                  6793                       # What read queue length does an incoming req see
system.mem_ctrls3.rdQLenPdf::14                  5900                       # What read queue length does an incoming req see
system.mem_ctrls3.rdQLenPdf::15                  5007                       # What read queue length does an incoming req see
system.mem_ctrls3.rdQLenPdf::16                  4329                       # What read queue length does an incoming req see
system.mem_ctrls3.rdQLenPdf::17                  3857                       # What read queue length does an incoming req see
system.mem_ctrls3.rdQLenPdf::18                  3222                       # What read queue length does an incoming req see
system.mem_ctrls3.rdQLenPdf::19                  2657                       # What read queue length does an incoming req see
system.mem_ctrls3.rdQLenPdf::20                  2316                       # What read queue length does an incoming req see
[...]
system.ruby.L2Cache_Controller.IS.Mem_Data::total        15687                      
system.ruby.L2Cache_Controller.IM.Mem_Data |       24719      3.13%      3.13% |       24665      3.12%      6.25% |       24674      3.12%      9.38% |       24679      3.13%     12.50% |       24670      3.12%     15.63% |       24674      3.12%     18.75% |       24675      3.12%     21.88% |       24666      3.12%     25.00% |       24681      3.13%     28.13% |       24680      3.13%     31.25% |       24663      3.12%     34.37% |       24687      3.13%     37.50% |       24674      3.12%     40.63% |       24671      3.12%     43.75% |       24669      3.12%     46.87% |       24662      3.12%     50.00% |       24683      3.13%     53.12% |       24680      3.13%     56.25% |       24677      3.12%     59.37% |       24675      3.12%     62.50% |       24688      3.13%     65.62% |       24697      3.13%     68.75% |       24670      3.12%     71.88% |       24674      3.12%     75.00% |       24686      3.13%     78.13% |       24680      3.13%     81.25% |       24683      3.13%     84.38% |       24670      3.12%     87.50% |       24671      3.12%     90.63% |       24672      3.12%     93.75% |       24681      3.13%     96.88% |       24668      3.12%    100.00%
system.ruby.L2Cache_Controller.IM.Mem_Data::total       789664                      
system.ruby.L2Cache_Controller.SS_MB.Exclusive_Unblock |           2      4.17%      4.17% |           4      8.33%     12.50% |           5     10.42%     22.92% |           3      6.25%     29.17% |           0      0.00%     29.17% |           0      0.00%     29.17% |           0      0.00%     29.17% |           0      0.00%     29.17% |           1      2.08%     31.25% |           1      2.08%     33.33% |           0      0.00%     33.33% |           1      2.08%     35.42% |           6     12.50%     47.92% |           0      0.00%     47.92% |           2      4.17%     52.08% |           0      0.00%     52.08% |           0      0.00%     52.08% |           0      0.00%     52.08% |           7     14.58%     66.67% |           5     10.42%     77.08% |           1      2.08%     79.17% |           0      0.00%     79.17% |           0      0.00%     79.17% |           0      0.00%     79.17% |           1      2.08%     81.25% |           1      2.08%     83.33% |           1      2.08%     85.42% |           1      2.08%     87.50% |           5     10.42%     97.92% |           0      0.00%     97.92% |           1      2.08%    100.00% |           0      0.00%    100.00%
system.ruby.L2Cache_Controller.SS_MB.Exclusive_Unblock::total           48                      
system.ruby.L2Cache_Controller.MT_MB.L1_GETX |           1    100.00%    100.00% |           0      0.00%    100.00% |           0      0.00%    100.00% |           0      0.00%    100.00% |           0      0.00%    100.00% |           0      0.00%    100.00% |           0      0.00%    100.00% |           0      0.00%    100.00% |           0      0.00%    100.00% |           0      0.00%    100.00% |           0      0.00%    100.00% |           0      0.00%    100.00% |           0      0.00%    100.00% |           0      0.00%    100.00% |           0      0.00%    100.00% |           0      0.00%    100.00% |           0      0.00%    100.00% |           0      0.00%    100.00% |           0      0.00%    100.00% |           0      0.00%    100.00% |           0      0.00%    100.00% |           0      0.00%    100.00% |           0      0.00%    100.00% |           0      0.00%    100.00% |           0      0.00%    100.00% |           0      0.00%    100.00% |           0      0.00%    100.00% |           0      0.00%    100.00% |           0      0.00%    100.00% |           0      0.00%    100.00% |           0      0.00%    100.00% |           0      0.00%    100.00%
system.ruby.L2Cache_Controller.MT_MB.L1_GETX::total            1                      
system.ruby.L2Cache_Controller.MT_MB.L1_PUTX |           7    100.00%    100.00% |           0      0.00%    100.00% |           0      0.00%    100.00% |           0      0.00%    100.00% |           0      0.00%    100.00% |           0      0.00%    100.00% |           0      0.00%    100.00% |           0      0.00%    100.00% |           0      0.00%    100.00% |           0      0.00%    100.00% |           0      0.00%    100.00% |           0      0.00%    100.00% |           0      0.00%    100.00% |           0      0.00%    100.00% |           0      0.00%    100.00% |           0      0.00%    100.00% |           0      0.00%    100.00% |           0      0.00%    100.00% |           0      0.00%    100.00% |           0      0.00%    100.00% |           0      0.00%    100.00% |           0      0.00%    100.00% |           0      0.00%    100.00% |           0      0.00%    100.00% |           0      0.00%    100.00% |           0      0.00%    100.00% |           0      0.00%    100.00% |           0      0.00%    100.00% |           0      0.00%    100.00% |           0      0.00%    100.00% |           0      0.00%    100.00% |           0      0.00%    100.00%
system.ruby.L2Cache_Controller.MT_MB.L1_PUTX::total            7                      
system.ruby.L2Cache_Controller.MT_MB.Exclusive_Unblock |      172253      9.60%      9.60% |       54275      3.03%     12.63% |       49274      2.75%     15.38% |       52984      2.95%     18.33% |       53500      2.98%     21.31% |       49508      2.76%     24.08% |       45944      2.56%     26.64% |       45952      2.56%     29.20% |       51257      2.86%     32.06% |       49806      2.78%     34.83% |       54041      3.01%     37.85% |       51019      2.84%     40.69% |       48276      2.69%     43.38% |       46904      2.62%     46.00% |       47871      2.67%     48.67% |       46602      2.60%     51.27% |       50462      2.81%     54.08% |       48361      2.70%     56.78% |       49889      2.78%     59.56% |       54000      3.01%     62.57% |       54516      3.04%     65.61% |       63364      3.53%     69.14% |       57993      3.23%     72.37% |       53233      2.97%     75.34% |       53331      2.97%     78.32% |       51432      2.87%     81.18% |       52496      2.93%     84.11% |       52298      2.92%     87.03% |       55497      3.09%     90.12% |       55154      3.08%     93.20% |       63458      3.54%     96.73% |       58582      3.27%    100.00%
system.ruby.L2Cache_Controller.MT_MB.Exclusive_Unblock::total      1793532                      
system.ruby.L2Cache_Controller.MT_IIB.WB_Data |           0      0.00%      0.00% |           0      0.00%      0.00% |           1      7.14%      7.14% |           1      7.14%     14.29% |           1      7.14%     21.43% |           0      0.00%     21.43% |           1      7.14%     28.57% |           0      0.00%     28.57% |           1      7.14%     35.71% |           1      7.14%     42.86% |           1      7.14%     50.00% |           1      7.14%     57.14% |           1      7.14%     64.29% |           0      0.00%     64.29% |           1      7.14%     71.43% |           1      7.14%     78.57% |           1      7.14%     85.71% |           1      7.14%     92.86% |           1      7.14%    100.00% |           0      0.00%    100.00% |           0      0.00%    100.00% |           0      0.00%    100.00% |           0      0.00%    100.00% |           0      0.00%    100.00% |           0      0.00%    100.00% |           0      0.00%    100.00% |           0      0.00%    100.00% |           0      0.00%    100.00% |           0      0.00%    100.00% |           0      0.00%    100.00% |           0      0.00%    100.00% |           0      0.00%    100.00%
system.ruby.L2Cache_Controller.MT_IIB.WB_Data::total           14                      
system.ruby.L2Cache_Controller.MT_IIB.WB_Data_clean |          15    100.00%    100.00% |           0      0.00%    100.00% |           0      0.00%    100.00% |           0      0.00%    100.00% |           0      0.00%    100.00% |           0      0.00%    100.00% |           0      0.00%    100.00% |           0      0.00%    100.00% |           0      0.00%    100.00% |           0      0.00%    100.00% |           0      0.00%    100.00% |           0      0.00%    100.00% |           0      0.00%    100.00% |           0      0.00%    100.00% |           0      0.00%    100.00% |           0      0.00%    100.00% |           0      0.00%    100.00% |           0      0.00%    100.00% |           0      0.00%    100.00% |           0      0.00%    100.00% |           0      0.00%    100.00% |           0      0.00%    100.00% |           0      0.00%    100.00% |           0      0.00%    100.00% |           0      0.00%    100.00% |           0      0.00%    100.00% |           0      0.00%    100.00% |           0      0.00%    100.00% |           0      0.00%    100.00% |           0      0.00%    100.00% |           0      0.00%    100.00% |           0      0.00%    100.00%
system.ruby.L2Cache_Controller.MT_IIB.WB_Data_clean::total           15                      
system.ruby.L2Cache_Controller.MT_IIB.Unblock |           1     33.33%     33.33% |           0      0.00%     33.33% |           0      0.00%     33.33% |           0      0.00%     33.33% |           0      0.00%     33.33% |           0      0.00%     33.33% |           0      0.00%     33.33% |           1     33.33%     66.67% |           0      0.00%     66.67% |           0      0.00%     66.67% |           0      0.00%     66.67% |           0      0.00%     66.67% |           0      0.00%     66.67% |           1     33.33%    100.00% |           0      0.00%    100.00% |           0      0.00%    100.00% |           0      0.00%    100.00% |           0      0.00%    100.00% |           0      0.00%    100.00% |           0      0.00%    100.00% |           0      0.00%    100.00% |           0      0.00%    100.00% |           0      0.00%    100.00% |           0      0.00%    100.00% |           0      0.00%    100.00% |           0      0.00%    100.00% |           0      0.00%    100.00% |           0      0.00%    100.00% |           0      0.00%    100.00% |           0      0.00%    100.00% |           0      0.00%    100.00% |           0      0.00%    100.00%
system.ruby.L2Cache_Controller.MT_IIB.Unblock::total            3                      
system.ruby.L2Cache_Controller.MT_IB.WB_Data |           0      0.00%      0.00% |           0      0.00%      0.00% |           0      0.00%      0.00% |           0      0.00%      0.00% |           0      0.00%      0.00% |           0      0.00%      0.00% |           0      0.00%      0.00% |           1     50.00%     50.00% |           0      0.00%     50.00% |           0      0.00%     50.00% |           0      0.00%     50.00% |           0      0.00%     50.00% |           0      0.00%     50.00% |           1     50.00%    100.00% |           0      0.00%    100.00% |           0      0.00%    100.00% |           0      0.00%    100.00% |           0      0.00%    100.00% |           0      0.00%    100.00% |           0      0.00%    100.00% |           0      0.00%    100.00% |           0      0.00%    100.00% |           0      0.00%    100.00% |           0      0.00%    100.00% |           0      0.00%    100.00% |           0      0.00%    100.00% |           0      0.00%    100.00% |           0      0.00%    100.00% |           0      0.00%    100.00% |           0      0.00%    100.00% |           0      0.00%    100.00% |           0      0.00%    100.00%
system.ruby.L2Cache_Controller.MT_IB.WB_Data::total            2                      
system.ruby.L2Cache_Controller.MT_IB.WB_Data_clean |           1    100.00%    100.00% |           0      0.00%    100.00% |           0      0.00%    100.00% |           0      0.00%    100.00% |           0      0.00%    100.00% |           0      0.00%    100.00% |           0      0.00%    100.00% |           0      0.00%    100.00% |           0      0.00%    100.00% |           0      0.00%    100.00% |           0      0.00%    100.00% |           0      0.00%    100.00% |           0      0.00%    100.00% |           0      0.00%    100.00% |           0      0.00%    100.00% |           0      0.00%    100.00% |           0      0.00%    100.00% |           0      0.00%    100.00% |           0      0.00%    100.00% |           0      0.00%    100.00% |           0      0.00%    100.00% |           0      0.00%    100.00% |           0      0.00%    100.00% |           0      0.00%    100.00% |           0      0.00%    100.00% |           0      0.00%    100.00% |           0      0.00%    100.00% |           0      0.00%    100.00% |           0      0.00%    100.00% |           0      0.00%    100.00% |           0      0.00%    100.00% |           0      0.00%    100.00%
system.ruby.L2Cache_Controller.MT_IB.WB_Data_clean::total            1                      
system.ruby.L2Cache_Controller.MT_SB.Unblock |          15     51.72%     51.72% |           0      0.00%     51.72% |           1      3.45%     55.17% |           1      3.45%     58.62% |           1      3.45%     62.07% |           0      0.00%     62.07% |           1      3.45%     65.52% |           0      0.00%     65.52% |           1      3.45%     68.97% |           1      3.45%     72.41% |           1      3.45%     75.86% |           1      3.45%     79.31% |           1      3.45%     82.76% |           0      0.00%     82.76% |           1      3.45%     86.21% |           1      3.45%     89.66% |           1      3.45%     93.10% |           1      3.45%     96.55% |           1      3.45%    100.00% |           0      0.00%    100.00% |           0      0.00%    100.00% |           0      0.00%    100.00% |           0      0.00%    100.00% |           0      0.00%    100.00% |           0      0.00%    100.00% |           0      0.00%    100.00% |           0      0.00%    100.00% |           0      0.00%    100.00% |           0      0.00%    100.00% |           0      0.00%    100.00% |           0      0.00%    100.00% |           0      0.00%    100.00%
system.ruby.L2Cache_Controller.MT_SB.Unblock::total           29                      
system.ruby.SimicsNetworkPortInterface_Controller.MessageSend |       36845     12.34%     12.34% |      149304     50.00%     62.34% |       27014      9.05%     71.39% |       29641      9.93%     81.31% |       26734      8.95%     90.26% |       29070      9.74%    100.00% |           0      0.00%    100.00% |           0      0.00%    100.00% |           0      0.00%    100.00% |           0      0.00%    100.00% |           0      0.00%    100.00% |           0      0.00%    100.00% |           0      0.00%    100.00% |           0      0.00%    100.00% |           0      0.00%    100.00% |           0      0.00%    100.00% |           0      0.00%    100.00% |           0      0.00%    100.00% |           0      0.00%    100.00% |           0      0.00%    100.00% |           0      0.00%    100.00% |           0      0.00%    100.00% |           0      0.00%    100.00% |           0      0.00%    100.00% |           0      0.00%    100.00% |           0      0.00%    100.00% |           0      0.00%    100.00% |           0      0.00%    100.00% |           0      0.00%    100.00% |           0      0.00%    100.00% |           0      0.00%    100.00% |           0      0.00%    100.00%
system.ruby.SimicsNetworkPortInterface_Controller.MessageSend::total       298608                      
system.ruby.SimicsNetworkPortInterface_Controller.MessageRecv |       36845     12.34%     12.34% |      149304     50.00%     62.34% |       27014      9.05%     71.39% |       29641      9.93%     81.31% |       26734      8.95%     90.26% |       29070      9.74%    100.00% |           0      0.00%    100.00% |           0      0.00%    100.00% |           0      0.00%    100.00% |           0      0.00%    100.00% |           0      0.00%    100.00% |           0      0.00%    100.00% |           0      0.00%    100.00% |           0      0.00%    100.00% |           0      0.00%    100.00% |           0      0.00%    100.00% |           0      0.00%    100.00% |           0      0.00%    100.00% |           0      0.00%    100.00% |           0      0.00%    100.00% |           0      0.00%    100.00% |           0      0.00%    100.00% |           0      0.00%    100.00% |           0      0.00%    100.00% |           0      0.00%    100.00% |           0      0.00%    100.00% |           0      0.00%    100.00% |           0      0.00%    100.00% |           0      0.00%    100.00% |           0      0.00%    100.00% |           0      0.00%    100.00% |           0      0.00%    100.00%
system.ruby.SimicsNetworkPortInterface_Controller.MessageRecv::total       298608                      
system.ruby.SimicsNetworkPortInterface_Controller.A.MessageSend |       36845     12.34%     12.34% |      149304     50.00%     62.34% |       27014      9.05%     71.39% |       29641      9.93%     81.31% |       26734      8.95%     90.26% |       29070      9.74%    100.00% |           0      0.00%    100.00% |           0      0.00%    100.00% |           0      0.00%    100.00% |           0      0.00%    100.00% |           0      0.00%    100.00% |           0      0.00%    100.00% |           0      0.00%    100.00% |           0      0.00%    100.00% |           0      0.00%    100.00% |           0      0.00%    100.00% |           0      0.00%    100.00% |           0      0.00%    100.00% |           0      0.00%    100.00% |           0      0.00%    100.00% |           0      0.00%    100.00% |           0      0.00%    100.00% |           0      0.00%    100.00% |           0      0.00%    100.00% |           0      0.00%    100.00% |           0      0.00%    100.00% |           0      0.00%    100.00% |           0      0.00%    100.00% |           0      0.00%    100.00% |           0      0.00%    100.00% |           0      0.00%    100.00% |           0      0.00%    100.00%
system.ruby.SimicsNetworkPortInterface_Controller.A.MessageSend::total       298608                      
system.ruby.SimicsNetworkPortInterface_Controller.A.MessageRecv |       36845     12.34%     12.34% |      149304     50.00%     62.34% |       27014      9.05%     71.39% |       29641      9.93%     81.31% |       26734      8.95%     90.26% |       29070      9.74%    100.00% |           0      0.00%    100.00% |           0      0.00%    100.00% |           0      0.00%    100.00% |           0      0.00%    100.00% |           0      0.00%    100.00% |           0      0.00%    100.00% |           0      0.00%    100.00% |           0      0.00%    100.00% |           0      0.00%    100.00% |           0      0.00%    100.00% |           0      0.00%    100.00% |           0      0.00%    100.00% |           0      0.00%    100.00% |           0      0.00%    100.00% |           0      0.00%    100.00% |           0      0.00%    100.00% |           0      0.00%    100.00% |           0      0.00%    100.00% |           0      0.00%    100.00% |           0      0.00%    100.00% |           0      0.00%    100.00% |           0      0.00%    100.00% |           0      0.00%    100.00% |           0      0.00%    100.00% |           0      0.00%    100.00% |           0      0.00%    100.00%
system.ruby.SimicsNetworkPortInterface_Controller.A.MessageRecv::total       298608                      
system.switch_cpus.kern.inst.arm                    0                       # number of arm instructions executed
system.switch_cpus.kern.inst.quiesce                0                       # number of quiesce instructions executed

---------- End Simulation Statistics   ----------
