
---------- Begin Simulation Statistics ----------
sim_seconds                                  0.056826                       # Number of seconds simulated
sim_ticks                                 56826165500                       # Number of ticks simulated
final_tick                               5232994244000                       # Number of ticks from beginning of simulation (restored from checkpoints and never reset)
sim_freq                                 1000000000000                       # Frequency of simulated ticks
host_inst_rate                                  29879                       # Simulator instruction rate (inst/s)
host_op_rate                                    52950                       # Simulator op (including micro ops) rate (op/s)
host_tick_rate                               74604473                       # Simulator tick rate (ticks/s)
host_mem_usage                                3811040                       # Number of bytes of host memory used
host_seconds                                   761.70                       # Real time elapsed on the host
sim_insts                                    22758664                       # Number of instructions simulated
sim_ops                                      40332127                       # Number of ops (including micro ops) simulated
system.voltage_domain.voltage                       1                       # Voltage in Volts
system.clk_domain.clock                           500                       # Clock period in ticks
system.mem_ctrls0.bytes_read::ruby.dir_cntrl0     12632128                       # Number of bytes read from this memory
system.mem_ctrls0.bytes_read::total          12632128                       # Number of bytes read from this memory
system.mem_ctrls0.bytes_written::ruby.dir_cntrl0      8043712                       # Number of bytes written to this memory
system.mem_ctrls0.bytes_written::total        8043712                       # Number of bytes written to this memory
system.mem_ctrls0.num_reads::ruby.dir_cntrl0       197377                       # Number of read requests responded to by this memory
system.mem_ctrls0.num_reads::total             197377                       # Number of read requests responded to by this memory
system.mem_ctrls0.num_writes::ruby.dir_cntrl0       125683                       # Number of write requests responded to by this memory
system.mem_ctrls0.num_writes::total            125683                       # Number of write requests responded to by this memory
system.mem_ctrls0.bw_read::ruby.dir_cntrl0    222294218                       # Total read bandwidth from this memory (bytes/s)
system.mem_ctrls0.bw_read::total            222294218                       # Total read bandwidth from this memory (bytes/s)
system.mem_ctrls0.bw_write::ruby.dir_cntrl0    141549442                       # Write bandwidth from this memory (bytes/s)
system.mem_ctrls0.bw_write::total           141549442                       # Write bandwidth from this memory (bytes/s)
system.mem_ctrls0.bw_total::ruby.dir_cntrl0    363843659                       # Total bandwidth to/from this memory (bytes/s)
system.mem_ctrls0.bw_total::total           363843659                       # Total bandwidth to/from this memory (bytes/s)
system.mem_ctrls0.readReqs                     197377                       # Number of read requests accepted
system.mem_ctrls0.writeReqs                    125683                       # Number of write requests accepted
system.mem_ctrls0.readBursts                   197377                       # Number of DRAM read bursts, including those serviced by the write queue
system.mem_ctrls0.writeBursts                  125683                       # Number of DRAM write bursts, including those merged in the write queue
system.mem_ctrls0.bytesReadDRAM              12630464                       # Total number of bytes read from DRAM
system.mem_ctrls0.bytesReadWrQ                   1664                       # Total number of bytes read from write queue
system.mem_ctrls0.bytesWritten                8043584                       # Total number of bytes written to DRAM
system.mem_ctrls0.bytesReadSys               12632128                       # Total read bytes from the system interface side
system.mem_ctrls0.bytesWrittenSys             8043712                       # Total written bytes from the system interface side
system.mem_ctrls0.servicedByWrQ                    26                       # Number of DRAM read bursts serviced by the write queue
system.mem_ctrls0.mergedWrBursts                    0                       # Number of DRAM write bursts merged with an existing one
system.mem_ctrls0.neitherReadNorWriteReqs            0                       # Number of requests that are neither read nor write
system.mem_ctrls0.perBankRdBursts::0            12089                       # Per bank write bursts
system.mem_ctrls0.perBankRdBursts::1            12191                       # Per bank write bursts
system.mem_ctrls0.perBankRdBursts::2            12073                       # Per bank write bursts
system.mem_ctrls0.perBankRdBursts::3            12442                       # Per bank write bursts
system.mem_ctrls0.perBankRdBursts::4            12208                       # Per bank write bursts
system.mem_ctrls0.perBankRdBursts::5            12274                       # Per bank write bursts
system.mem_ctrls0.perBankRdBursts::6            12506                       # Per bank write bursts
system.mem_ctrls0.perBankRdBursts::7            12663                       # Per bank write bursts
system.mem_ctrls0.perBankRdBursts::8            12435                       # Per bank write bursts
system.mem_ctrls0.perBankRdBursts::9            12782                       # Per bank write bursts
system.mem_ctrls0.perBankRdBursts::10           12438                       # Per bank write bursts
system.mem_ctrls0.perBankRdBursts::11           12721                       # Per bank write bursts
system.mem_ctrls0.perBankRdBursts::12           12287                       # Per bank write bursts
system.mem_ctrls0.perBankRdBursts::13           12024                       # Per bank write bursts
system.mem_ctrls0.perBankRdBursts::14           12302                       # Per bank write bursts
system.mem_ctrls0.perBankRdBursts::15           11916                       # Per bank write bursts
system.mem_ctrls0.perBankWrBursts::0             7795                       # Per bank write bursts
system.mem_ctrls0.perBankWrBursts::1             7659                       # Per bank write bursts
system.mem_ctrls0.perBankWrBursts::2             7813                       # Per bank write bursts
system.mem_ctrls0.perBankWrBursts::3             7842                       # Per bank write bursts
system.mem_ctrls0.perBankWrBursts::4             7791                       # Per bank write bursts
system.mem_ctrls0.perBankWrBursts::5             7884                       # Per bank write bursts
system.mem_ctrls0.perBankWrBursts::6             7995                       # Per bank write bursts
system.mem_ctrls0.perBankWrBursts::7             8023                       # Per bank write bursts
system.mem_ctrls0.perBankWrBursts::8             7919                       # Per bank write bursts
system.mem_ctrls0.perBankWrBursts::9             8078                       # Per bank write bursts
system.mem_ctrls0.perBankWrBursts::10            7873                       # Per bank write bursts
system.mem_ctrls0.perBankWrBursts::11            7911                       # Per bank write bursts
system.mem_ctrls0.perBankWrBursts::12            7762                       # Per bank write bursts
system.mem_ctrls0.perBankWrBursts::13            7817                       # Per bank write bursts
system.mem_ctrls0.perBankWrBursts::14            7886                       # Per bank write bursts
system.mem_ctrls0.perBankWrBursts::15            7633                       # Per bank write bursts
system.mem_ctrls0.numRdRetry                    50478                       # Number of times read queue was full causing retry
system.mem_ctrls0.numWrRetry                     5430                       # Number of times write queue was full causing retry
system.mem_ctrls0.totGap                  56825657000                       # Total gap between requests
system.mem_ctrls0.readPktSize::0                    0                       # Read request sizes (log2)
system.mem_ctrls0.readPktSize::1                    0                       # Read request sizes (log2)
system.mem_ctrls0.readPktSize::2                    0                       # Read request sizes (log2)
system.mem_ctrls0.readPktSize::3                    0                       # Read request sizes (log2)
system.mem_ctrls0.readPktSize::4                    0                       # Read request sizes (log2)
system.mem_ctrls0.readPktSize::5                    0                       # Read request sizes (log2)
system.mem_ctrls0.readPktSize::6               197377                       # Read request sizes (log2)
system.mem_ctrls0.writePktSize::0                   0                       # Write request sizes (log2)
system.mem_ctrls0.writePktSize::1                   0                       # Write request sizes (log2)
system.mem_ctrls0.writePktSize::2                   0                       # Write request sizes (log2)
system.mem_ctrls0.writePktSize::3                   0                       # Write request sizes (log2)
system.mem_ctrls0.writePktSize::4                   0                       # Write request sizes (log2)
system.mem_ctrls0.writePktSize::5                   0                       # Write request sizes (log2)
system.mem_ctrls0.writePktSize::6              125683                       # Write request sizes (log2)
system.mem_ctrls0.rdQLenPdf::0                  69408                       # What read queue length does an incoming req see
system.mem_ctrls0.rdQLenPdf::1                   3441                       # What read queue length does an incoming req see
system.mem_ctrls0.rdQLenPdf::2                   2269                       # What read queue length does an incoming req see
system.mem_ctrls0.rdQLenPdf::3                   1808                       # What read queue length does an incoming req see
system.mem_ctrls0.rdQLenPdf::4                   1958                       # What read queue length does an incoming req see
system.mem_ctrls0.rdQLenPdf::5                   2217                       # What read queue length does an incoming req see
system.mem_ctrls0.rdQLenPdf::6                   2334                       # What read queue length does an incoming req see
system.mem_ctrls0.rdQLenPdf::7                   2503                       # What read queue length does an incoming req see
system.mem_ctrls0.rdQLenPdf::8                   2577                       # What read queue length does an incoming req see
system.mem_ctrls0.rdQLenPdf::9                   2606                       # What read queue length does an incoming req see
system.mem_ctrls0.rdQLenPdf::10                  2591                       # What read queue length does an incoming req see
system.mem_ctrls0.rdQLenPdf::11                  2554                       # What read queue length does an incoming req see
system.mem_ctrls0.rdQLenPdf::12                  2526                       # What read queue length does an incoming req see
system.mem_ctrls0.rdQLenPdf::13                  2496                       # What read queue length does an incoming req see
system.mem_ctrls0.rdQLenPdf::14                  2523                       # What read queue length does an incoming req see
system.mem_ctrls0.rdQLenPdf::15                  2595                       # What read queue length does an incoming req see
system.mem_ctrls0.rdQLenPdf::16                  2618                       # What read queue length does an incoming req see
system.mem_ctrls0.rdQLenPdf::17                  2668                       # What read queue length does an incoming req see
system.mem_ctrls0.rdQLenPdf::18                  2537                       # What read queue length does an incoming req see
system.mem_ctrls0.rdQLenPdf::19                  2435                       # What read queue length does an incoming req see
system.mem_ctrls0.rdQLenPdf::20                  2457                       # What read queue length does an incoming req see
system.mem_ctrls0.rdQLenPdf::21                  2428                       # What read queue length does an incoming req see
system.mem_ctrls0.rdQLenPdf::22                  2325                       # What read queue length does an incoming req see
system.mem_ctrls0.rdQLenPdf::23                  2299                       # What read queue length does an incoming req see
system.mem_ctrls0.rdQLenPdf::24                  2347                       # What read queue length does an incoming req see
system.mem_ctrls0.rdQLenPdf::25                  2398                       # What read queue length does an incoming req see
system.mem_ctrls0.rdQLenPdf::26                  2420                       # What read queue length does an incoming req see
system.mem_ctrls0.rdQLenPdf::27                  2398                       # What read queue length does an incoming req see
system.mem_ctrls0.rdQLenPdf::28                  2452                       # What read queue length does an incoming req see
system.mem_ctrls0.rdQLenPdf::29                  2581                       # What read queue length does an incoming req see
system.mem_ctrls0.rdQLenPdf::30                  2685                       # What read queue length does an incoming req see
system.mem_ctrls0.rdQLenPdf::31                 53897                       # What read queue length does an incoming req see
system.mem_ctrls0.wrQLenPdf::0                  17106                       # What write queue length does an incoming req see
system.mem_ctrls0.wrQLenPdf::1                  19116                       # What write queue length does an incoming req see
system.mem_ctrls0.wrQLenPdf::2                  19780                       # What write queue length does an incoming req see
system.mem_ctrls0.wrQLenPdf::3                  20153                       # What write queue length does an incoming req see
system.mem_ctrls0.wrQLenPdf::4                  20437                       # What write queue length does an incoming req see
system.mem_ctrls0.wrQLenPdf::5                   8080                       # What write queue length does an incoming req see
system.mem_ctrls0.wrQLenPdf::6                   8889                       # What write queue length does an incoming req see
system.mem_ctrls0.wrQLenPdf::7                  12122                       # What write queue length does an incoming req see
system.mem_ctrls0.bytesPerActivate::samples        89949                       # Bytes accessed per row activation
system.mem_ctrls0.bytesPerActivate::mean   229.835485                       # Bytes accessed per row activation
system.mem_ctrls0.bytesPerActivate::gmean   166.005999                       # Bytes accessed per row activation
system.mem_ctrls0.bytesPerActivate::stdev   203.130896                       # Bytes accessed per row activation
system.mem_ctrls0.bytesPerActivate::0-127        28894     32.12%     32.12% # Bytes accessed per row activation
system.mem_ctrls0.bytesPerActivate::128-255        24786     27.56%     59.68% # Bytes accessed per row activation
system.mem_ctrls0.bytesPerActivate::256-383        22623     25.15%     84.83% # Bytes accessed per row activation
system.mem_ctrls0.bytesPerActivate::384-511         5238      5.82%     90.65% # Bytes accessed per row activation
system.mem_ctrls0.bytesPerActivate::512-639         3130      3.48%     94.13% # Bytes accessed per row activation
system.mem_ctrls0.bytesPerActivate::640-767         1675      1.86%     95.99% # Bytes accessed per row activation
system.mem_ctrls0.bytesPerActivate::768-895         1046      1.16%     97.16% # Bytes accessed per row activation
system.mem_ctrls0.bytesPerActivate::896-1023          758      0.84%     98.00% # Bytes accessed per row activation
system.mem_ctrls0.bytesPerActivate::1024-1151         1799      2.00%    100.00% # Bytes accessed per row activation
system.mem_ctrls0.bytesPerActivate::total        89949                       # Bytes accessed per row activation
system.mem_ctrls0.rdPerTurnAround::samples        17800                       # Reads before turning the bus around for writes
system.mem_ctrls0.rdPerTurnAround::mean     11.086966                       # Reads before turning the bus around for writes
system.mem_ctrls0.rdPerTurnAround::stdev    31.873517                       # Reads before turning the bus around for writes
system.mem_ctrls0.rdPerTurnAround::0-127        17792     99.96%     99.96% # Reads before turning the bus around for writes
system.mem_ctrls0.rdPerTurnAround::128-255            7      0.04%     99.99% # Reads before turning the bus around for writes
system.mem_ctrls0.rdPerTurnAround::3968-4095            1      0.01%    100.00% # Reads before turning the bus around for writes
system.mem_ctrls0.rdPerTurnAround::total        17800                       # Reads before turning the bus around for writes
system.mem_ctrls0.wrPerTurnAround::samples        17800                       # Writes before turning the bus around for reads
system.mem_ctrls0.wrPerTurnAround::mean      7.060730                       # Writes before turning the bus around for reads
system.mem_ctrls0.wrPerTurnAround::gmean     6.431312                       # Writes before turning the bus around for reads
system.mem_ctrls0.wrPerTurnAround::stdev     3.509199                       # Writes before turning the bus around for reads
system.mem_ctrls0.wrPerTurnAround::4-7          12919     72.58%     72.58% # Writes before turning the bus around for reads
system.mem_ctrls0.wrPerTurnAround::8-11          2176     12.22%     84.80% # Writes before turning the bus around for reads
system.mem_ctrls0.wrPerTurnAround::12-15         1630      9.16%     93.96% # Writes before turning the bus around for reads
system.mem_ctrls0.wrPerTurnAround::16-19         1075      6.04%    100.00% # Writes before turning the bus around for reads
system.mem_ctrls0.wrPerTurnAround::total        17800                       # Writes before turning the bus around for reads
system.mem_ctrls0.totQLat                 30165153907                       # Total ticks spent queuing
system.mem_ctrls0.totMemAccLat            33865485157                       # Total ticks spent from burst creation until serviced by the DRAM
system.mem_ctrls0.totBusLat                 986755000                       # Total ticks spent in databus transfers
system.mem_ctrls0.avgQLat                   152850.27                       # Average queueing delay per DRAM burst
system.mem_ctrls0.avgBusLat                   5000.00                       # Average bus latency per DRAM burst
system.mem_ctrls0.avgMemAccLat              171600.27                       # Average memory access latency per DRAM burst
system.mem_ctrls0.avgRdBW                      222.26                       # Average DRAM read bandwidth in MiByte/s
system.mem_ctrls0.avgWrBW                      141.55                       # Average achieved write bandwidth in MiByte/s
system.mem_ctrls0.avgRdBWSys                   222.29                       # Average system read bandwidth in MiByte/s
system.mem_ctrls0.avgWrBWSys                   141.55                       # Average system write bandwidth in MiByte/s
system.mem_ctrls0.peakBW                     12800.00                       # Theoretical peak bandwidth in MiByte/s
system.mem_ctrls0.busUtil                        2.84                       # Data bus utilization in percentage
system.mem_ctrls0.busUtilRead                    1.74                       # Data bus utilization in percentage for reads
system.mem_ctrls0.busUtilWrite                   1.11                       # Data bus utilization in percentage for writes
system.mem_ctrls0.avgRdQLen                      1.56                       # Average read queue length when enqueuing
system.mem_ctrls0.avgWrQLen                      2.92                       # Average write queue length when enqueuing
system.mem_ctrls0.readRowHits                  151422                       # Number of row buffer hits during reads
system.mem_ctrls0.writeRowHits                  81653                       # Number of row buffer hits during writes
system.mem_ctrls0.readRowHitRate                76.73                       # Row buffer hit rate for reads
system.mem_ctrls0.writeRowHitRate               64.97                       # Row buffer hit rate for writes
system.mem_ctrls0.avgGap                    175898.15                       # Average gap between requests
system.mem_ctrls0.pageHitRate                   72.15                       # Row buffer hit rate, read and write combined
system.mem_ctrls0.memoryStateTime::IDLE   11627689000                       # Time in different power states
system.mem_ctrls0.memoryStateTime::REF     1897480000                       # Time in different power states
system.mem_ctrls0.memoryStateTime::PRE_PDN            0                       # Time in different power states
system.mem_ctrls0.memoryStateTime::ACT    43299157250                       # Time in different power states
system.mem_ctrls0.memoryStateTime::ACT_PDN            0                       # Time in different power states
system.mem_ctrls0.actEnergy::0              343050120                       # Energy for activate commands per rank (pJ)
system.mem_ctrls0.actEnergy::1              336934080                       # Energy for activate commands per rank (pJ)
system.mem_ctrls0.preEnergy::0              187180125                       # Energy for precharge commands per rank (pJ)
system.mem_ctrls0.preEnergy::1              183843000                       # Energy for precharge commands per rank (pJ)
system.mem_ctrls0.readEnergy::0             767863200                       # Energy for read commands per rank (pJ)
system.mem_ctrls0.readEnergy::1             771396600                       # Energy for read commands per rank (pJ)
system.mem_ctrls0.writeEnergy::0            406937520                       # Energy for write commands per rank (pJ)
system.mem_ctrls0.writeEnergy::1            407442960                       # Energy for write commands per rank (pJ)
system.mem_ctrls0.refreshEnergy::0         3711470880                       # Energy for refresh commands per rank (pJ)
system.mem_ctrls0.refreshEnergy::1         3711470880                       # Energy for refresh commands per rank (pJ)
system.mem_ctrls0.actBackEnergy::0        22369585590                       # Energy for active background per rank (pJ)
system.mem_ctrls0.actBackEnergy::1        21853292985                       # Energy for active background per rank (pJ)
system.mem_ctrls0.preBackEnergy::0        14472144000                       # Energy for precharge background per rank (pJ)
system.mem_ctrls0.preBackEnergy::1        14925032250                       # Energy for precharge background per rank (pJ)
system.mem_ctrls0.totalEnergy::0          42258231435                       # Total energy per rank (pJ)
system.mem_ctrls0.totalEnergy::1          42189412755                       # Total energy per rank (pJ)
system.mem_ctrls0.averagePower::0          743.664632                       # Core power per rank (mW)
system.mem_ctrls0.averagePower::1          742.453554                       # Core power per rank (mW)
system.mem_ctrls1.bytes_read::ruby.dir_cntrl1     12406208                       # Number of bytes read from this memory
system.mem_ctrls1.bytes_read::total          12406208                       # Number of bytes read from this memory
system.mem_ctrls1.bytes_written::ruby.dir_cntrl1      7826368                       # Number of bytes written to this memory
system.mem_ctrls1.bytes_written::total        7826368                       # Number of bytes written to this memory
system.mem_ctrls1.num_reads::ruby.dir_cntrl1       193847                       # Number of read requests responded to by this memory
system.mem_ctrls1.num_reads::total             193847                       # Number of read requests responded to by this memory
system.mem_ctrls1.num_writes::ruby.dir_cntrl1       122287                       # Number of write requests responded to by this memory
system.mem_ctrls1.num_writes::total            122287                       # Number of write requests responded to by this memory
system.mem_ctrls1.bw_read::ruby.dir_cntrl1    218318584                       # Total read bandwidth from this memory (bytes/s)
system.mem_ctrls1.bw_read::total            218318584                       # Total read bandwidth from this memory (bytes/s)
system.mem_ctrls1.bw_write::ruby.dir_cntrl1    137724725                       # Write bandwidth from this memory (bytes/s)
system.mem_ctrls1.bw_write::total           137724725                       # Write bandwidth from this memory (bytes/s)
system.mem_ctrls1.bw_total::ruby.dir_cntrl1    356043309                       # Total bandwidth to/from this memory (bytes/s)
system.mem_ctrls1.bw_total::total           356043309                       # Total bandwidth to/from this memory (bytes/s)
system.mem_ctrls1.readReqs                     193849                       # Number of read requests accepted
system.mem_ctrls1.writeReqs                    122287                       # Number of write requests accepted
system.mem_ctrls1.readBursts                   193849                       # Number of DRAM read bursts, including those serviced by the write queue
system.mem_ctrls1.writeBursts                  122287                       # Number of DRAM write bursts, including those merged in the write queue
system.mem_ctrls1.bytesReadDRAM              12404544                       # Total number of bytes read from DRAM
system.mem_ctrls1.bytesReadWrQ                   1792                       # Total number of bytes read from write queue
system.mem_ctrls1.bytesWritten                7826112                       # Total number of bytes written to DRAM
system.mem_ctrls1.bytesReadSys               12406336                       # Total read bytes from the system interface side
system.mem_ctrls1.bytesWrittenSys             7826368                       # Total written bytes from the system interface side
system.mem_ctrls1.servicedByWrQ                    28                       # Number of DRAM read bursts serviced by the write queue
system.mem_ctrls1.mergedWrBursts                    0                       # Number of DRAM write bursts merged with an existing one
system.mem_ctrls1.neitherReadNorWriteReqs            0                       # Number of requests that are neither read nor write
system.mem_ctrls1.perBankRdBursts::0            11881                       # Per bank write bursts
system.mem_ctrls1.perBankRdBursts::1            11968                       # Per bank write bursts
system.mem_ctrls1.perBankRdBursts::2            11847                       # Per bank write bursts
system.mem_ctrls1.perBankRdBursts::3            12202                       # Per bank write bursts
system.mem_ctrls1.perBankRdBursts::4            12010                       # Per bank write bursts
system.mem_ctrls1.perBankRdBursts::5            12092                       # Per bank write bursts
system.mem_ctrls1.perBankRdBursts::6            12322                       # Per bank write bursts
system.mem_ctrls1.perBankRdBursts::7            12454                       # Per bank write bursts
system.mem_ctrls1.perBankRdBursts::8            12207                       # Per bank write bursts
system.mem_ctrls1.perBankRdBursts::9            12557                       # Per bank write bursts
system.mem_ctrls1.perBankRdBursts::10           12201                       # Per bank write bursts
system.mem_ctrls1.perBankRdBursts::11           12529                       # Per bank write bursts
system.mem_ctrls1.perBankRdBursts::12           12051                       # Per bank write bursts
system.mem_ctrls1.perBankRdBursts::13           11798                       # Per bank write bursts
system.mem_ctrls1.perBankRdBursts::14           11987                       # Per bank write bursts
system.mem_ctrls1.perBankRdBursts::15           11715                       # Per bank write bursts
system.mem_ctrls1.perBankWrBursts::0             7592                       # Per bank write bursts
system.mem_ctrls1.perBankWrBursts::1             7467                       # Per bank write bursts
system.mem_ctrls1.perBankWrBursts::2             7610                       # Per bank write bursts
system.mem_ctrls1.perBankWrBursts::3             7630                       # Per bank write bursts
system.mem_ctrls1.perBankWrBursts::4             7594                       # Per bank write bursts
system.mem_ctrls1.perBankWrBursts::5             7685                       # Per bank write bursts
system.mem_ctrls1.perBankWrBursts::6             7773                       # Per bank write bursts
system.mem_ctrls1.perBankWrBursts::7             7804                       # Per bank write bursts
system.mem_ctrls1.perBankWrBursts::8             7709                       # Per bank write bursts
system.mem_ctrls1.perBankWrBursts::9             7860                       # Per bank write bursts
system.mem_ctrls1.perBankWrBursts::10            7655                       # Per bank write bursts
system.mem_ctrls1.perBankWrBursts::11            7702                       # Per bank write bursts
system.mem_ctrls1.perBankWrBursts::12            7550                       # Per bank write bursts
system.mem_ctrls1.perBankWrBursts::13            7603                       # Per bank write bursts
system.mem_ctrls1.perBankWrBursts::14            7617                       # Per bank write bursts
system.mem_ctrls1.perBankWrBursts::15            7432                       # Per bank write bursts
system.mem_ctrls1.numRdRetry                    45089                       # Number of times read queue was full causing retry
system.mem_ctrls1.numWrRetry                     5191                       # Number of times write queue was full causing retry
system.mem_ctrls1.totGap                  56825533000                       # Total gap between requests
system.mem_ctrls1.readPktSize::0                    0                       # Read request sizes (log2)
system.mem_ctrls1.readPktSize::1                    0                       # Read request sizes (log2)
system.mem_ctrls1.readPktSize::2                    0                       # Read request sizes (log2)
system.mem_ctrls1.readPktSize::3                    0                       # Read request sizes (log2)
system.mem_ctrls1.readPktSize::4                    0                       # Read request sizes (log2)
system.mem_ctrls1.readPktSize::5                    0                       # Read request sizes (log2)
system.mem_ctrls1.readPktSize::6               193849                       # Read request sizes (log2)
system.mem_ctrls1.writePktSize::0                   0                       # Write request sizes (log2)
system.mem_ctrls1.writePktSize::1                   0                       # Write request sizes (log2)
system.mem_ctrls1.writePktSize::2                   0                       # Write request sizes (log2)
system.mem_ctrls1.writePktSize::3                   0                       # Write request sizes (log2)
system.mem_ctrls1.writePktSize::4                   0                       # Write request sizes (log2)
system.mem_ctrls1.writePktSize::5                   0                       # Write request sizes (log2)
system.mem_ctrls1.writePktSize::6              122287                       # Write request sizes (log2)
system.mem_ctrls1.rdQLenPdf::0                  68155                       # What read queue length does an incoming req see
system.mem_ctrls1.rdQLenPdf::1                   2080                       # What read queue length does an incoming req see
system.mem_ctrls1.rdQLenPdf::2                   1741                       # What read queue length does an incoming req see
system.mem_ctrls1.rdQLenPdf::3                   1791                       # What read queue length does an incoming req see
system.mem_ctrls1.rdQLenPdf::4                   2102                       # What read queue length does an incoming req see
system.mem_ctrls1.rdQLenPdf::5                   2302                       # What read queue length does an incoming req see
system.mem_ctrls1.rdQLenPdf::6                   2525                       # What read queue length does an incoming req see
system.mem_ctrls1.rdQLenPdf::7                   2656                       # What read queue length does an incoming req see
system.mem_ctrls1.rdQLenPdf::8                   2632                       # What read queue length does an incoming req see
system.mem_ctrls1.rdQLenPdf::9                   2853                       # What read queue length does an incoming req see
system.mem_ctrls1.rdQLenPdf::10                  2932                       # What read queue length does an incoming req see
system.mem_ctrls1.rdQLenPdf::11                  2832                       # What read queue length does an incoming req see
system.mem_ctrls1.rdQLenPdf::12                  2838                       # What read queue length does an incoming req see
system.mem_ctrls1.rdQLenPdf::13                  2659                       # What read queue length does an incoming req see
system.mem_ctrls1.rdQLenPdf::14                  2726                       # What read queue length does an incoming req see
system.mem_ctrls1.rdQLenPdf::15                  2711                       # What read queue length does an incoming req see
system.mem_ctrls1.rdQLenPdf::16                  2705                       # What read queue length does an incoming req see
system.mem_ctrls1.rdQLenPdf::17                  2677                       # What read queue length does an incoming req see
system.mem_ctrls1.rdQLenPdf::18                  2654                       # What read queue length does an incoming req see
system.mem_ctrls1.rdQLenPdf::19                  2654                       # What read queue length does an incoming req see
system.mem_ctrls1.rdQLenPdf::20                  2671                       # What read queue length does an incoming req see
system.mem_ctrls1.rdQLenPdf::21                  2619                       # What read queue length does an incoming req see
system.mem_ctrls1.rdQLenPdf::22                  2560                       # What read queue length does an incoming req see
system.mem_ctrls1.rdQLenPdf::23                  2518                       # What read queue length does an incoming req see
system.mem_ctrls1.rdQLenPdf::24                  2551                       # What read queue length does an incoming req see
system.mem_ctrls1.rdQLenPdf::25                  2389                       # What read queue length does an incoming req see
system.mem_ctrls1.rdQLenPdf::26                  2480                       # What read queue length does an incoming req see
system.mem_ctrls1.rdQLenPdf::27                  2592                       # What read queue length does an incoming req see
system.mem_ctrls1.rdQLenPdf::28                  2756                       # What read queue length does an incoming req see
system.mem_ctrls1.rdQLenPdf::29                  2862                       # What read queue length does an incoming req see
system.mem_ctrls1.rdQLenPdf::30                  2957                       # What read queue length does an incoming req see
system.mem_ctrls1.rdQLenPdf::31                 48641                       # What read queue length does an incoming req see
system.mem_ctrls1.wrQLenPdf::0                  16554                       # What write queue length does an incoming req see
system.mem_ctrls1.wrQLenPdf::1                  18587                       # What write queue length does an incoming req see
system.mem_ctrls1.wrQLenPdf::2                  19418                       # What write queue length does an incoming req see
system.mem_ctrls1.wrQLenPdf::3                  19674                       # What write queue length does an incoming req see
system.mem_ctrls1.wrQLenPdf::4                  19906                       # What write queue length does an incoming req see
system.mem_ctrls1.wrQLenPdf::5                   8175                       # What write queue length does an incoming req see
system.mem_ctrls1.wrQLenPdf::6                   8805                       # What write queue length does an incoming req see
system.mem_ctrls1.wrQLenPdf::7                  11168                       # What write queue length does an incoming req see
system.mem_ctrls1.bytesPerActivate::samples        82873                       # Bytes accessed per row activation
system.mem_ctrls1.bytesPerActivate::mean   244.107104                       # Bytes accessed per row activation
system.mem_ctrls1.bytesPerActivate::gmean   178.934309                       # Bytes accessed per row activation
system.mem_ctrls1.bytesPerActivate::stdev   207.197754                       # Bytes accessed per row activation
system.mem_ctrls1.bytesPerActivate::0-127        22751     27.45%     27.45% # Bytes accessed per row activation
system.mem_ctrls1.bytesPerActivate::128-255        23891     28.83%     56.28% # Bytes accessed per row activation
system.mem_ctrls1.bytesPerActivate::256-383        22455     27.10%     83.38% # Bytes accessed per row activation
system.mem_ctrls1.bytesPerActivate::384-511         5215      6.29%     89.67% # Bytes accessed per row activation
system.mem_ctrls1.bytesPerActivate::512-639         3221      3.89%     93.56% # Bytes accessed per row activation
system.mem_ctrls1.bytesPerActivate::640-767         1683      2.03%     95.59% # Bytes accessed per row activation
system.mem_ctrls1.bytesPerActivate::768-895         1087      1.31%     96.90% # Bytes accessed per row activation
system.mem_ctrls1.bytesPerActivate::896-1023          724      0.87%     97.77% # Bytes accessed per row activation
system.mem_ctrls1.bytesPerActivate::1024-1151         1846      2.23%    100.00% # Bytes accessed per row activation
system.mem_ctrls1.bytesPerActivate::total        82873                       # Bytes accessed per row activation
system.mem_ctrls1.rdPerTurnAround::samples        17287                       # Reads before turning the bus around for writes
system.mem_ctrls1.rdPerTurnAround::mean     11.211141                       # Reads before turning the bus around for writes
system.mem_ctrls1.rdPerTurnAround::stdev    26.215963                       # Reads before turning the bus around for writes
system.mem_ctrls1.rdPerTurnAround::0-127        17281     99.97%     99.97% # Reads before turning the bus around for writes
system.mem_ctrls1.rdPerTurnAround::128-255            4      0.02%     99.99% # Reads before turning the bus around for writes
system.mem_ctrls1.rdPerTurnAround::1152-1279            1      0.01%     99.99% # Reads before turning the bus around for writes
system.mem_ctrls1.rdPerTurnAround::2816-2943            1      0.01%    100.00% # Reads before turning the bus around for writes
system.mem_ctrls1.rdPerTurnAround::total        17287                       # Reads before turning the bus around for writes
system.mem_ctrls1.wrPerTurnAround::samples        17287                       # Writes before turning the bus around for reads
system.mem_ctrls1.wrPerTurnAround::mean      7.073697                       # Writes before turning the bus around for reads
system.mem_ctrls1.wrPerTurnAround::gmean     6.443664                       # Writes before turning the bus around for reads
system.mem_ctrls1.wrPerTurnAround::stdev     3.504382                       # Writes before turning the bus around for reads
system.mem_ctrls1.wrPerTurnAround::4-7          12393     71.69%     71.69% # Writes before turning the bus around for reads
system.mem_ctrls1.wrPerTurnAround::8-11          2320     13.42%     85.11% # Writes before turning the bus around for reads
system.mem_ctrls1.wrPerTurnAround::12-15         1499      8.67%     93.78% # Writes before turning the bus around for reads
system.mem_ctrls1.wrPerTurnAround::16-19         1075      6.22%    100.00% # Writes before turning the bus around for reads
system.mem_ctrls1.wrPerTurnAround::total        17287                       # Writes before turning the bus around for reads
system.mem_ctrls1.totQLat                 29042097421                       # Total ticks spent queuing
system.mem_ctrls1.totMemAccLat            32676241171                       # Total ticks spent from burst creation until serviced by the DRAM
system.mem_ctrls1.totBusLat                 969105000                       # Total ticks spent in databus transfers
system.mem_ctrls1.avgQLat                   149839.79                       # Average queueing delay per DRAM burst
system.mem_ctrls1.avgBusLat                   5000.00                       # Average bus latency per DRAM burst
system.mem_ctrls1.avgMemAccLat              168589.79                       # Average memory access latency per DRAM burst
system.mem_ctrls1.avgRdBW                      218.29                       # Average DRAM read bandwidth in MiByte/s
system.mem_ctrls1.avgWrBW                      137.72                       # Average achieved write bandwidth in MiByte/s
system.mem_ctrls1.avgRdBWSys                   218.32                       # Average system read bandwidth in MiByte/s
system.mem_ctrls1.avgWrBWSys                   137.72                       # Average system write bandwidth in MiByte/s
system.mem_ctrls1.peakBW                     12800.00                       # Theoretical peak bandwidth in MiByte/s
system.mem_ctrls1.busUtil                        2.78                       # Data bus utilization in percentage
system.mem_ctrls1.busUtilRead                    1.71                       # Data bus utilization in percentage for reads
system.mem_ctrls1.busUtilWrite                   1.08                       # Data bus utilization in percentage for writes
system.mem_ctrls1.avgRdQLen                      1.54                       # Average read queue length when enqueuing
system.mem_ctrls1.avgWrQLen                      2.97                       # Average write queue length when enqueuing
system.mem_ctrls1.readRowHits                  150213                       # Number of row buffer hits during reads
system.mem_ctrls1.writeRowHits                  83011                       # Number of row buffer hits during writes
system.mem_ctrls1.readRowHitRate                77.50                       # Row buffer hit rate for reads
system.mem_ctrls1.writeRowHitRate               67.88                       # Row buffer hit rate for writes
system.mem_ctrls1.avgGap                    179750.28                       # Average gap between requests
system.mem_ctrls1.pageHitRate                   73.78                       # Row buffer hit rate, read and write combined
system.mem_ctrls1.memoryStateTime::IDLE   11893382750                       # Time in different power states
system.mem_ctrls1.memoryStateTime::REF     1897480000                       # Time in different power states
system.mem_ctrls1.memoryStateTime::PRE_PDN            0                       # Time in different power states
system.mem_ctrls1.memoryStateTime::ACT    43033463500                       # Time in different power states
system.mem_ctrls1.memoryStateTime::ACT_PDN            0                       # Time in different power states
system.mem_ctrls1.actEnergy::0              316627920                       # Energy for activate commands per rank (pJ)
system.mem_ctrls1.actEnergy::1              309891960                       # Energy for activate commands per rank (pJ)
system.mem_ctrls1.preEnergy::0              172763250                       # Energy for precharge commands per rank (pJ)
system.mem_ctrls1.preEnergy::1              169087875                       # Energy for precharge commands per rank (pJ)
system.mem_ctrls1.readEnergy::0             754813800                       # Energy for read commands per rank (pJ)
system.mem_ctrls1.readEnergy::1             756896400                       # Energy for read commands per rank (pJ)
system.mem_ctrls1.writeEnergy::0            396284400                       # Energy for write commands per rank (pJ)
system.mem_ctrls1.writeEnergy::1            396109440                       # Energy for write commands per rank (pJ)
system.mem_ctrls1.refreshEnergy::0         3711470880                       # Energy for refresh commands per rank (pJ)
system.mem_ctrls1.refreshEnergy::1         3711470880                       # Energy for refresh commands per rank (pJ)
system.mem_ctrls1.actBackEnergy::0        22145895360                       # Energy for active background per rank (pJ)
system.mem_ctrls1.actBackEnergy::1        21593971485                       # Energy for active background per rank (pJ)
system.mem_ctrls1.preBackEnergy::0        14668363500                       # Energy for precharge background per rank (pJ)
system.mem_ctrls1.preBackEnergy::1        15152507250                       # Energy for precharge background per rank (pJ)
system.mem_ctrls1.totalEnergy::0          42166219110                       # Total energy per rank (pJ)
system.mem_ctrls1.totalEnergy::1          42089935290                       # Total energy per rank (pJ)
system.mem_ctrls1.averagePower::0          742.045390                       # Core power per rank (mW)
system.mem_ctrls1.averagePower::1          740.702939                       # Core power per rank (mW)
system.mem_ctrls2.bytes_read::ruby.dir_cntrl2     12406400                       # Number of bytes read from this memory
system.mem_ctrls2.bytes_read::total          12406400                       # Number of bytes read from this memory
system.mem_ctrls2.bytes_written::ruby.dir_cntrl2      7826816                       # Number of bytes written to this memory
system.mem_ctrls2.bytes_written::total        7826816                       # Number of bytes written to this memory
system.mem_ctrls2.num_reads::ruby.dir_cntrl2       193850                       # Number of read requests responded to by this memory
system.mem_ctrls2.num_reads::total             193850                       # Number of read requests responded to by this memory
system.mem_ctrls2.num_writes::ruby.dir_cntrl2       122294                       # Number of write requests responded to by this memory
system.mem_ctrls2.num_writes::total            122294                       # Number of write requests responded to by this memory
system.mem_ctrls2.bw_read::ruby.dir_cntrl2    218321963                       # Total read bandwidth from this memory (bytes/s)
system.mem_ctrls2.bw_read::total            218321963                       # Total read bandwidth from this memory (bytes/s)
system.mem_ctrls2.bw_write::ruby.dir_cntrl2    137732608                       # Write bandwidth from this memory (bytes/s)
system.mem_ctrls2.bw_write::total           137732608                       # Write bandwidth from this memory (bytes/s)
system.mem_ctrls2.bw_total::ruby.dir_cntrl2    356054571                       # Total bandwidth to/from this memory (bytes/s)
system.mem_ctrls2.bw_total::total           356054571                       # Total bandwidth to/from this memory (bytes/s)
system.mem_ctrls2.readReqs                     193850                       # Number of read requests accepted
system.mem_ctrls2.writeReqs                    122294                       # Number of write requests accepted
system.mem_ctrls2.readBursts                   193850                       # Number of DRAM read bursts, including those serviced by the write queue
system.mem_ctrls2.writeBursts                  122294                       # Number of DRAM write bursts, including those merged in the write queue
system.mem_ctrls2.bytesReadDRAM              12404992                       # Total number of bytes read from DRAM
system.mem_ctrls2.bytesReadWrQ                   1408                       # Total number of bytes read from write queue
system.mem_ctrls2.bytesWritten                7826624                       # Total number of bytes written to DRAM
system.mem_ctrls2.bytesReadSys               12406400                       # Total read bytes from the system interface side
system.mem_ctrls2.bytesWrittenSys             7826816                       # Total written bytes from the system interface side
system.mem_ctrls2.servicedByWrQ                    22                       # Number of DRAM read bursts serviced by the write queue
system.mem_ctrls2.mergedWrBursts                    0                       # Number of DRAM write bursts merged with an existing one
system.mem_ctrls2.neitherReadNorWriteReqs            0                       # Number of requests that are neither read nor write
system.mem_ctrls2.perBankRdBursts::0            11876                       # Per bank write bursts
system.mem_ctrls2.perBankRdBursts::1            11996                       # Per bank write bursts
system.mem_ctrls2.perBankRdBursts::2            11867                       # Per bank write bursts
system.mem_ctrls2.perBankRdBursts::3            12249                       # Per bank write bursts
system.mem_ctrls2.perBankRdBursts::4            12012                       # Per bank write bursts
system.mem_ctrls2.perBankRdBursts::5            12077                       # Per bank write bursts
system.mem_ctrls2.perBankRdBursts::6            12290                       # Per bank write bursts
system.mem_ctrls2.perBankRdBursts::7            12448                       # Per bank write bursts
system.mem_ctrls2.perBankRdBursts::8            12194                       # Per bank write bursts
system.mem_ctrls2.perBankRdBursts::9            12537                       # Per bank write bursts
system.mem_ctrls2.perBankRdBursts::10           12210                       # Per bank write bursts
system.mem_ctrls2.perBankRdBursts::11           12573                       # Per bank write bursts
system.mem_ctrls2.perBankRdBursts::12           12053                       # Per bank write bursts
system.mem_ctrls2.perBankRdBursts::13           11763                       # Per bank write bursts
system.mem_ctrls2.perBankRdBursts::14           11969                       # Per bank write bursts
system.mem_ctrls2.perBankRdBursts::15           11714                       # Per bank write bursts
system.mem_ctrls2.perBankWrBursts::0             7585                       # Per bank write bursts
system.mem_ctrls2.perBankWrBursts::1             7465                       # Per bank write bursts
system.mem_ctrls2.perBankWrBursts::2             7612                       # Per bank write bursts
system.mem_ctrls2.perBankWrBursts::3             7641                       # Per bank write bursts
system.mem_ctrls2.perBankWrBursts::4             7590                       # Per bank write bursts
system.mem_ctrls2.perBankWrBursts::5             7670                       # Per bank write bursts
system.mem_ctrls2.perBankWrBursts::6             7766                       # Per bank write bursts
system.mem_ctrls2.perBankWrBursts::7             7815                       # Per bank write bursts
system.mem_ctrls2.perBankWrBursts::8             7711                       # Per bank write bursts
system.mem_ctrls2.perBankWrBursts::9             7862                       # Per bank write bursts
system.mem_ctrls2.perBankWrBursts::10            7657                       # Per bank write bursts
system.mem_ctrls2.perBankWrBursts::11            7713                       # Per bank write bursts
system.mem_ctrls2.perBankWrBursts::12            7557                       # Per bank write bursts
system.mem_ctrls2.perBankWrBursts::13            7593                       # Per bank write bursts
system.mem_ctrls2.perBankWrBursts::14            7621                       # Per bank write bursts
system.mem_ctrls2.perBankWrBursts::15            7433                       # Per bank write bursts
system.mem_ctrls2.numRdRetry                    49110                       # Number of times read queue was full causing retry
system.mem_ctrls2.numWrRetry                     5356                       # Number of times write queue was full causing retry
system.mem_ctrls2.totGap                  56826092500                       # Total gap between requests
system.mem_ctrls2.readPktSize::0                    0                       # Read request sizes (log2)
system.mem_ctrls2.readPktSize::1                    0                       # Read request sizes (log2)
system.mem_ctrls2.readPktSize::2                    0                       # Read request sizes (log2)
system.mem_ctrls2.readPktSize::3                    0                       # Read request sizes (log2)
system.mem_ctrls2.readPktSize::4                    0                       # Read request sizes (log2)
system.mem_ctrls2.readPktSize::5                    0                       # Read request sizes (log2)
system.mem_ctrls2.readPktSize::6               193850                       # Read request sizes (log2)
system.mem_ctrls2.writePktSize::0                   0                       # Write request sizes (log2)
system.mem_ctrls2.writePktSize::1                   0                       # Write request sizes (log2)
system.mem_ctrls2.writePktSize::2                   0                       # Write request sizes (log2)
system.mem_ctrls2.writePktSize::3                   0                       # Write request sizes (log2)
system.mem_ctrls2.writePktSize::4                   0                       # Write request sizes (log2)
system.mem_ctrls2.writePktSize::5                   0                       # Write request sizes (log2)
system.mem_ctrls2.writePktSize::6              122294                       # Write request sizes (log2)
system.mem_ctrls2.rdQLenPdf::0                  68288                       # What read queue length does an incoming req see
system.mem_ctrls2.rdQLenPdf::1                   2083                       # What read queue length does an incoming req see
system.mem_ctrls2.rdQLenPdf::2                   1784                       # What read queue length does an incoming req see
system.mem_ctrls2.rdQLenPdf::3                   1831                       # What read queue length does an incoming req see
system.mem_ctrls2.rdQLenPdf::4                   2078                       # What read queue length does an incoming req see
system.mem_ctrls2.rdQLenPdf::5                   2306                       # What read queue length does an incoming req see
system.mem_ctrls2.rdQLenPdf::6                   2363                       # What read queue length does an incoming req see
system.mem_ctrls2.rdQLenPdf::7                   2636                       # What read queue length does an incoming req see
system.mem_ctrls2.rdQLenPdf::8                   2684                       # What read queue length does an incoming req see
system.mem_ctrls2.rdQLenPdf::9                   2755                       # What read queue length does an incoming req see
system.mem_ctrls2.rdQLenPdf::10                  2648                       # What read queue length does an incoming req see
system.mem_ctrls2.rdQLenPdf::11                  2713                       # What read queue length does an incoming req see
system.mem_ctrls2.rdQLenPdf::12                  2706                       # What read queue length does an incoming req see
system.mem_ctrls2.rdQLenPdf::13                  2513                       # What read queue length does an incoming req see
system.mem_ctrls2.rdQLenPdf::14                  2514                       # What read queue length does an incoming req see
system.mem_ctrls2.rdQLenPdf::15                  2518                       # What read queue length does an incoming req see
system.mem_ctrls2.rdQLenPdf::16                  2523                       # What read queue length does an incoming req see
system.mem_ctrls2.rdQLenPdf::17                  2361                       # What read queue length does an incoming req see
system.mem_ctrls2.rdQLenPdf::18                  2333                       # What read queue length does an incoming req see
system.mem_ctrls2.rdQLenPdf::19                  2362                       # What read queue length does an incoming req see
system.mem_ctrls2.rdQLenPdf::20                  2388                       # What read queue length does an incoming req see
system.mem_ctrls2.rdQLenPdf::21                  2370                       # What read queue length does an incoming req see
system.mem_ctrls2.rdQLenPdf::22                  2335                       # What read queue length does an incoming req see
system.mem_ctrls2.rdQLenPdf::23                  2394                       # What read queue length does an incoming req see
system.mem_ctrls2.rdQLenPdf::24                  2443                       # What read queue length does an incoming req see
system.mem_ctrls2.rdQLenPdf::25                  2457                       # What read queue length does an incoming req see
system.mem_ctrls2.rdQLenPdf::26                  2461                       # What read queue length does an incoming req see
system.mem_ctrls2.rdQLenPdf::27                  2473                       # What read queue length does an incoming req see
system.mem_ctrls2.rdQLenPdf::28                  2601                       # What read queue length does an incoming req see
system.mem_ctrls2.rdQLenPdf::29                  2603                       # What read queue length does an incoming req see
system.mem_ctrls2.rdQLenPdf::30                  2802                       # What read queue length does an incoming req see
system.mem_ctrls2.rdQLenPdf::31                 52502                       # What read queue length does an incoming req see
system.mem_ctrls2.wrQLenPdf::0                  16584                       # What write queue length does an incoming req see
system.mem_ctrls2.wrQLenPdf::1                  18494                       # What write queue length does an incoming req see
system.mem_ctrls2.wrQLenPdf::2                  19235                       # What write queue length does an incoming req see
system.mem_ctrls2.wrQLenPdf::3                  19613                       # What write queue length does an incoming req see
system.mem_ctrls2.wrQLenPdf::4                  19894                       # What write queue length does an incoming req see
system.mem_ctrls2.wrQLenPdf::5                   8055                       # What write queue length does an incoming req see
system.mem_ctrls2.wrQLenPdf::6                   8839                       # What write queue length does an incoming req see
system.mem_ctrls2.wrQLenPdf::7                  11580                       # What write queue length does an incoming req see
system.mem_ctrls2.bytesPerActivate::samples        81797                       # Bytes accessed per row activation
system.mem_ctrls2.bytesPerActivate::mean   247.336210                       # Bytes accessed per row activation
system.mem_ctrls2.bytesPerActivate::gmean   181.379702                       # Bytes accessed per row activation
system.mem_ctrls2.bytesPerActivate::stdev   208.846410                       # Bytes accessed per row activation
system.mem_ctrls2.bytesPerActivate::0-127        22047     26.95%     26.95% # Bytes accessed per row activation
system.mem_ctrls2.bytesPerActivate::128-255        23110     28.25%     55.21% # Bytes accessed per row activation
system.mem_ctrls2.bytesPerActivate::256-383        22742     27.80%     83.01% # Bytes accessed per row activation
system.mem_ctrls2.bytesPerActivate::384-511         5232      6.40%     89.41% # Bytes accessed per row activation
system.mem_ctrls2.bytesPerActivate::512-639         3244      3.97%     93.37% # Bytes accessed per row activation
system.mem_ctrls2.bytesPerActivate::640-767         1738      2.12%     95.50% # Bytes accessed per row activation
system.mem_ctrls2.bytesPerActivate::768-895         1032      1.26%     96.76% # Bytes accessed per row activation
system.mem_ctrls2.bytesPerActivate::896-1023          746      0.91%     97.67% # Bytes accessed per row activation
system.mem_ctrls2.bytesPerActivate::1024-1151         1906      2.33%    100.00% # Bytes accessed per row activation
system.mem_ctrls2.bytesPerActivate::total        81797                       # Bytes accessed per row activation
system.mem_ctrls2.rdPerTurnAround::samples        17283                       # Reads before turning the bus around for writes
system.mem_ctrls2.rdPerTurnAround::mean     11.214315                       # Reads before turning the bus around for writes
system.mem_ctrls2.rdPerTurnAround::stdev    26.297898                       # Reads before turning the bus around for writes
system.mem_ctrls2.rdPerTurnAround::0-127        17278     99.97%     99.97% # Reads before turning the bus around for writes
system.mem_ctrls2.rdPerTurnAround::128-255            3      0.02%     99.99% # Reads before turning the bus around for writes
system.mem_ctrls2.rdPerTurnAround::1152-1279            1      0.01%     99.99% # Reads before turning the bus around for writes
system.mem_ctrls2.rdPerTurnAround::2816-2943            1      0.01%    100.00% # Reads before turning the bus around for writes
system.mem_ctrls2.rdPerTurnAround::total        17283                       # Reads before turning the bus around for writes
system.mem_ctrls2.wrPerTurnAround::samples        17283                       # Writes before turning the bus around for reads
system.mem_ctrls2.wrPerTurnAround::mean      7.075797                       # Writes before turning the bus around for reads
system.mem_ctrls2.wrPerTurnAround::gmean     6.443137                       # Writes before turning the bus around for reads
system.mem_ctrls2.wrPerTurnAround::stdev     3.510270                       # Writes before turning the bus around for reads
system.mem_ctrls2.wrPerTurnAround::4-7          12415     71.83%     71.83% # Writes before turning the bus around for reads
system.mem_ctrls2.wrPerTurnAround::8-11          2236     12.94%     84.77% # Writes before turning the bus around for reads
system.mem_ctrls2.wrPerTurnAround::12-15         1584      9.17%     93.94% # Writes before turning the bus around for reads
system.mem_ctrls2.wrPerTurnAround::16-19         1048      6.06%    100.00% # Writes before turning the bus around for reads
system.mem_ctrls2.wrPerTurnAround::total        17283                       # Writes before turning the bus around for reads
system.mem_ctrls2.totQLat                 29476327540                       # Total ticks spent queuing
system.mem_ctrls2.totMemAccLat            33110602540                       # Total ticks spent from burst creation until serviced by the DRAM
system.mem_ctrls2.totBusLat                 969140000                       # Total ticks spent in databus transfers
system.mem_ctrls2.avgQLat                   152074.66                       # Average queueing delay per DRAM burst
system.mem_ctrls2.avgBusLat                   5000.00                       # Average bus latency per DRAM burst
system.mem_ctrls2.avgMemAccLat              170824.66                       # Average memory access latency per DRAM burst
system.mem_ctrls2.avgRdBW                      218.30                       # Average DRAM read bandwidth in MiByte/s
system.mem_ctrls2.avgWrBW                      137.73                       # Average achieved write bandwidth in MiByte/s
system.mem_ctrls2.avgRdBWSys                   218.32                       # Average system read bandwidth in MiByte/s
system.mem_ctrls2.avgWrBWSys                   137.73                       # Average system write bandwidth in MiByte/s
system.mem_ctrls2.peakBW                     12800.00                       # Theoretical peak bandwidth in MiByte/s
system.mem_ctrls2.busUtil                        2.78                       # Data bus utilization in percentage
system.mem_ctrls2.busUtilRead                    1.71                       # Data bus utilization in percentage for reads
system.mem_ctrls2.busUtilWrite                   1.08                       # Data bus utilization in percentage for writes
system.mem_ctrls2.avgRdQLen                      1.55                       # Average read queue length when enqueuing
system.mem_ctrls2.avgWrQLen                      2.93                       # Average write queue length when enqueuing
system.mem_ctrls2.readRowHits                  150795                       # Number of row buffer hits during reads
system.mem_ctrls2.writeRowHits                  83523                       # Number of row buffer hits during writes
system.mem_ctrls2.readRowHitRate                77.80                       # Row buffer hit rate for reads
system.mem_ctrls2.writeRowHitRate               68.30                       # Row buffer hit rate for writes
system.mem_ctrls2.avgGap                    179747.50                       # Average gap between requests
system.mem_ctrls2.pageHitRate                   74.12                       # Row buffer hit rate, read and write combined
system.mem_ctrls2.memoryStateTime::IDLE   11876565250                       # Time in different power states
system.mem_ctrls2.memoryStateTime::REF     1897480000                       # Time in different power states
system.mem_ctrls2.memoryStateTime::PRE_PDN            0                       # Time in different power states
system.mem_ctrls2.memoryStateTime::ACT    43050385750                       # Time in different power states
system.mem_ctrls2.memoryStateTime::ACT_PDN            0                       # Time in different power states
system.mem_ctrls2.actEnergy::0              311804640                       # Energy for activate commands per rank (pJ)
system.mem_ctrls2.actEnergy::1              306558000                       # Energy for activate commands per rank (pJ)
system.mem_ctrls2.preEnergy::0              170131500                       # Energy for precharge commands per rank (pJ)
system.mem_ctrls2.preEnergy::1              167268750                       # Energy for precharge commands per rank (pJ)
system.mem_ctrls2.readEnergy::0             755125800                       # Energy for read commands per rank (pJ)
system.mem_ctrls2.readEnergy::1             756654600                       # Energy for read commands per rank (pJ)
system.mem_ctrls2.writeEnergy::0            396213120                       # Energy for write commands per rank (pJ)
system.mem_ctrls2.writeEnergy::1            396232560                       # Energy for write commands per rank (pJ)
system.mem_ctrls2.refreshEnergy::0         3711470880                       # Energy for refresh commands per rank (pJ)
system.mem_ctrls2.refreshEnergy::1         3711470880                       # Energy for refresh commands per rank (pJ)
system.mem_ctrls2.actBackEnergy::0        21896681670                       # Energy for active background per rank (pJ)
system.mem_ctrls2.actBackEnergy::1        21400885980                       # Energy for active background per rank (pJ)
system.mem_ctrls2.preBackEnergy::0        14886972000                       # Energy for precharge background per rank (pJ)
system.mem_ctrls2.preBackEnergy::1        15321880500                       # Energy for precharge background per rank (pJ)
system.mem_ctrls2.totalEnergy::0          42128399610                       # Total energy per rank (pJ)
system.mem_ctrls2.totalEnergy::1          42060951270                       # Total energy per rank (pJ)
system.mem_ctrls2.averagePower::0          741.379838                       # Core power per rank (mW)
system.mem_ctrls2.averagePower::1          740.192876                       # Core power per rank (mW)
system.mem_ctrls3.bytes_read::ruby.dir_cntrl3     12385664                       # Number of bytes read from this memory
system.mem_ctrls3.bytes_read::total          12385664                       # Number of bytes read from this memory
system.mem_ctrls3.bytes_written::ruby.dir_cntrl3      7824640                       # Number of bytes written to this memory
system.mem_ctrls3.bytes_written::total        7824640                       # Number of bytes written to this memory
system.mem_ctrls3.num_reads::ruby.dir_cntrl3       193526                       # Number of read requests responded to by this memory
system.mem_ctrls3.num_reads::total             193526                       # Number of read requests responded to by this memory
system.mem_ctrls3.num_writes::ruby.dir_cntrl3       122260                       # Number of write requests responded to by this memory
system.mem_ctrls3.num_writes::total            122260                       # Number of write requests responded to by this memory
system.mem_ctrls3.bw_read::ruby.dir_cntrl3    217957061                       # Total read bandwidth from this memory (bytes/s)
system.mem_ctrls3.bw_read::total            217957061                       # Total read bandwidth from this memory (bytes/s)
system.mem_ctrls3.bw_write::ruby.dir_cntrl3    137694316                       # Write bandwidth from this memory (bytes/s)
system.mem_ctrls3.bw_write::total           137694316                       # Write bandwidth from this memory (bytes/s)
system.mem_ctrls3.bw_total::ruby.dir_cntrl3    355651377                       # Total bandwidth to/from this memory (bytes/s)
system.mem_ctrls3.bw_total::total           355651377                       # Total bandwidth to/from this memory (bytes/s)
system.mem_ctrls3.readReqs                     193526                       # Number of read requests accepted
system.mem_ctrls3.writeReqs                    122260                       # Number of write requests accepted
system.mem_ctrls3.readBursts                   193526                       # Number of DRAM read bursts, including those serviced by the write queue
system.mem_ctrls3.writeBursts                  122260                       # Number of DRAM write bursts, including those merged in the write queue
system.mem_ctrls3.bytesReadDRAM              12384320                       # Total number of bytes read from DRAM
system.mem_ctrls3.bytesReadWrQ                   1344                       # Total number of bytes read from write queue
system.mem_ctrls3.bytesWritten                7824576                       # Total number of bytes written to DRAM
system.mem_ctrls3.bytesReadSys               12385664                       # Total read bytes from the system interface side
system.mem_ctrls3.bytesWrittenSys             7824640                       # Total written bytes from the system interface side
system.mem_ctrls3.servicedByWrQ                    21                       # Number of DRAM read bursts serviced by the write queue
system.mem_ctrls3.mergedWrBursts                    0                       # Number of DRAM write bursts merged with an existing one
system.mem_ctrls3.neitherReadNorWriteReqs            0                       # Number of requests that are neither read nor write
system.mem_ctrls3.perBankRdBursts::0            11866                       # Per bank write bursts
system.mem_ctrls3.perBankRdBursts::1            11950                       # Per bank write bursts
system.mem_ctrls3.perBankRdBursts::2            11809                       # Per bank write bursts
system.mem_ctrls3.perBankRdBursts::3            12206                       # Per bank write bursts
system.mem_ctrls3.perBankRdBursts::4            11961                       # Per bank write bursts
system.mem_ctrls3.perBankRdBursts::5            12054                       # Per bank write bursts
system.mem_ctrls3.perBankRdBursts::6            12271                       # Per bank write bursts
system.mem_ctrls3.perBankRdBursts::7            12440                       # Per bank write bursts
system.mem_ctrls3.perBankRdBursts::8            12195                       # Per bank write bursts
system.mem_ctrls3.perBankRdBursts::9            12531                       # Per bank write bursts
system.mem_ctrls3.perBankRdBursts::10           12234                       # Per bank write bursts
system.mem_ctrls3.perBankRdBursts::11           12500                       # Per bank write bursts
system.mem_ctrls3.perBankRdBursts::12           12041                       # Per bank write bursts
system.mem_ctrls3.perBankRdBursts::13           11755                       # Per bank write bursts
system.mem_ctrls3.perBankRdBursts::14           11985                       # Per bank write bursts
system.mem_ctrls3.perBankRdBursts::15           11707                       # Per bank write bursts
system.mem_ctrls3.perBankWrBursts::0             7589                       # Per bank write bursts
system.mem_ctrls3.perBankWrBursts::1             7453                       # Per bank write bursts
system.mem_ctrls3.perBankWrBursts::2             7609                       # Per bank write bursts
system.mem_ctrls3.perBankWrBursts::3             7628                       # Per bank write bursts
system.mem_ctrls3.perBankWrBursts::4             7586                       # Per bank write bursts
system.mem_ctrls3.perBankWrBursts::5             7671                       # Per bank write bursts
system.mem_ctrls3.perBankWrBursts::6             7767                       # Per bank write bursts
system.mem_ctrls3.perBankWrBursts::7             7806                       # Per bank write bursts
system.mem_ctrls3.perBankWrBursts::8             7711                       # Per bank write bursts
system.mem_ctrls3.perBankWrBursts::9             7862                       # Per bank write bursts
system.mem_ctrls3.perBankWrBursts::10            7660                       # Per bank write bursts
system.mem_ctrls3.perBankWrBursts::11            7721                       # Per bank write bursts
system.mem_ctrls3.perBankWrBursts::12            7555                       # Per bank write bursts
system.mem_ctrls3.perBankWrBursts::13            7600                       # Per bank write bursts
system.mem_ctrls3.perBankWrBursts::14            7617                       # Per bank write bursts
system.mem_ctrls3.perBankWrBursts::15            7424                       # Per bank write bursts
system.mem_ctrls3.numRdRetry                    44372                       # Number of times read queue was full causing retry
system.mem_ctrls3.numWrRetry                     5034                       # Number of times write queue was full causing retry
system.mem_ctrls3.totGap                  56825105000                       # Total gap between requests
system.mem_ctrls3.readPktSize::0                    0                       # Read request sizes (log2)
system.mem_ctrls3.readPktSize::1                    0                       # Read request sizes (log2)
system.mem_ctrls3.readPktSize::2                    0                       # Read request sizes (log2)
system.mem_ctrls3.readPktSize::3                    0                       # Read request sizes (log2)
system.mem_ctrls3.readPktSize::4                    0                       # Read request sizes (log2)
system.mem_ctrls3.readPktSize::5                    0                       # Read request sizes (log2)
system.mem_ctrls3.readPktSize::6               193526                       # Read request sizes (log2)
system.mem_ctrls3.writePktSize::0                   0                       # Write request sizes (log2)
system.mem_ctrls3.writePktSize::1                   0                       # Write request sizes (log2)
system.mem_ctrls3.writePktSize::2                   0                       # Write request sizes (log2)
system.mem_ctrls3.writePktSize::3                   0                       # Write request sizes (log2)
system.mem_ctrls3.writePktSize::4                   0                       # Write request sizes (log2)
system.mem_ctrls3.writePktSize::5                   0                       # Write request sizes (log2)
system.mem_ctrls3.writePktSize::6              122260                       # Write request sizes (log2)
system.mem_ctrls3.rdQLenPdf::0                  67932                       # What read queue length does an incoming req see
system.mem_ctrls3.rdQLenPdf::1                   2103                       # What read queue length does an incoming req see
system.mem_ctrls3.rdQLenPdf::2                   1769                       # What read queue length does an incoming req see
system.mem_ctrls3.rdQLenPdf::3                   1880                       # What read queue length does an incoming req see
system.mem_ctrls3.rdQLenPdf::4                   2089                       # What read queue length does an incoming req see
system.mem_ctrls3.rdQLenPdf::5                   2332                       # What read queue length does an incoming req see
system.mem_ctrls3.rdQLenPdf::6                   2544                       # What read queue length does an incoming req see
system.mem_ctrls3.rdQLenPdf::7                   2642                       # What read queue length does an incoming req see
system.mem_ctrls3.rdQLenPdf::8                   2713                       # What read queue length does an incoming req see
system.mem_ctrls3.rdQLenPdf::9                   2787                       # What read queue length does an incoming req see
system.mem_ctrls3.rdQLenPdf::10                  2815                       # What read queue length does an incoming req see
system.mem_ctrls3.rdQLenPdf::11                  2777                       # What read queue length does an incoming req see
system.mem_ctrls3.rdQLenPdf::12                  2830                       # What read queue length does an incoming req see
system.mem_ctrls3.rdQLenPdf::13                  2830                       # What read queue length does an incoming req see
system.mem_ctrls3.rdQLenPdf::14                  2764                       # What read queue length does an incoming req see
system.mem_ctrls3.rdQLenPdf::15                  2739                       # What read queue length does an incoming req see
system.mem_ctrls3.rdQLenPdf::16                  2837                       # What read queue length does an incoming req see
system.mem_ctrls3.rdQLenPdf::17                  2793                       # What read queue length does an incoming req see
system.mem_ctrls3.rdQLenPdf::18                  2797                       # What read queue length does an incoming req see
system.mem_ctrls3.rdQLenPdf::19                  2784                       # What read queue length does an incoming req see
system.mem_ctrls3.rdQLenPdf::20                  2672                       # What read queue length does an incoming req see
system.mem_ctrls3.rdQLenPdf::21                  2673                       # What read queue length does an incoming req see
system.mem_ctrls3.rdQLenPdf::22                  2636                       # What read queue length does an incoming req see
system.mem_ctrls3.rdQLenPdf::23                  2637                       # What read queue length does an incoming req see
system.mem_ctrls3.rdQLenPdf::24                  2560                       # What read queue length does an incoming req see
[...]
system.ruby.L2Cache_Controller.IS.Mem_Data::total        13502                      
system.ruby.L2Cache_Controller.IM.L1_GETX |           1    100.00%    100.00% |           0      0.00%    100.00% |           0      0.00%    100.00% |           0      0.00%    100.00% |           0      0.00%    100.00% |           0      0.00%    100.00% |           0      0.00%    100.00% |           0      0.00%    100.00% |           0      0.00%    100.00% |           0      0.00%    100.00% |           0      0.00%    100.00% |           0      0.00%    100.00% |           0      0.00%    100.00% |           0      0.00%    100.00% |           0      0.00%    100.00% |           0      0.00%    100.00% |           0      0.00%    100.00% |           0      0.00%    100.00% |           0      0.00%    100.00% |           0      0.00%    100.00% |           0      0.00%    100.00% |           0      0.00%    100.00% |           0      0.00%    100.00% |           0      0.00%    100.00% |           0      0.00%    100.00% |           0      0.00%    100.00% |           0      0.00%    100.00% |           0      0.00%    100.00% |           0      0.00%    100.00% |           0      0.00%    100.00% |           0      0.00%    100.00% |           0      0.00%    100.00%
system.ruby.L2Cache_Controller.IM.L1_GETX::total            1                      
system.ruby.L2Cache_Controller.IM.Mem_Data |       14974      3.14%      3.14% |       14885      3.12%      6.26% |       14890      3.12%      9.39% |       14891      3.12%     12.51% |       14883      3.12%     15.63% |       14891      3.12%     18.76% |       14894      3.12%     21.88% |       14887      3.12%     25.00% |       14894      3.12%     28.13% |       14899      3.13%     31.25% |       14879      3.12%     34.37% |       14901      3.13%     37.50% |       14891      3.12%     40.62% |       14893      3.12%     43.75% |       14888      3.12%     46.87% |       14883      3.12%     49.99% |       14925      3.13%     53.12% |       14897      3.12%     56.25% |       14898      3.13%     59.37% |       14901      3.13%     62.50% |       14914      3.13%     65.63% |       14918      3.13%     68.76% |       14886      3.12%     71.88% |       14898      3.13%     75.01% |       14908      3.13%     78.13% |       14899      3.13%     81.26% |       14902      3.13%     84.38% |       14893      3.12%     87.51% |       14887      3.12%     90.63% |       14883      3.12%     93.75% |       14895      3.12%     96.88% |       14882      3.12%    100.00%
system.ruby.L2Cache_Controller.IM.Mem_Data::total       476709                      
system.ruby.L2Cache_Controller.SS_MB.Exclusive_Unblock |           3      6.12%      6.12% |           6     12.24%     18.37% |           2      4.08%     22.45% |           3      6.12%     28.57% |           0      0.00%     28.57% |           0      0.00%     28.57% |           0      0.00%     28.57% |           0      0.00%     28.57% |           1      2.04%     30.61% |           0      0.00%     30.61% |           0      0.00%     30.61% |           1      2.04%     32.65% |           4      8.16%     40.82% |           0      0.00%     40.82% |           2      4.08%     44.90% |           0      0.00%     44.90% |           1      2.04%     46.94% |           2      4.08%     51.02% |          13     26.53%     77.55% |           3      6.12%     83.67% |           0      0.00%     83.67% |           0      0.00%     83.67% |           0      0.00%     83.67% |           0      0.00%     83.67% |           1      2.04%     85.71% |           0      0.00%     85.71% |           3      6.12%     91.84% |           4      8.16%    100.00% |           0      0.00%    100.00% |           0      0.00%    100.00% |           0      0.00%    100.00% |           0      0.00%    100.00%
system.ruby.L2Cache_Controller.SS_MB.Exclusive_Unblock::total           49                      
system.ruby.L2Cache_Controller.MT_MB.L1_GETS |           1    100.00%    100.00% |           0      0.00%    100.00% |           0      0.00%    100.00% |           0      0.00%    100.00% |           0      0.00%    100.00% |           0      0.00%    100.00% |           0      0.00%    100.00% |           0      0.00%    100.00% |           0      0.00%    100.00% |           0      0.00%    100.00% |           0      0.00%    100.00% |           0      0.00%    100.00% |           0      0.00%    100.00% |           0      0.00%    100.00% |           0      0.00%    100.00% |           0      0.00%    100.00% |           0      0.00%    100.00% |           0      0.00%    100.00% |           0      0.00%    100.00% |           0      0.00%    100.00% |           0      0.00%    100.00% |           0      0.00%    100.00% |           0      0.00%    100.00% |           0      0.00%    100.00% |           0      0.00%    100.00% |           0      0.00%    100.00% |           0      0.00%    100.00% |           0      0.00%    100.00% |           0      0.00%    100.00% |           0      0.00%    100.00% |           0      0.00%    100.00% |           0      0.00%    100.00%
system.ruby.L2Cache_Controller.MT_MB.L1_GETS::total            1                      
system.ruby.L2Cache_Controller.MT_MB.Exclusive_Unblock |       75921      7.22%      7.22% |       32861      3.13%     10.35% |       29495      2.81%     13.16% |       32393      3.08%     16.24% |       29788      2.83%     19.07% |       29678      2.82%     21.90% |       29086      2.77%     24.66% |       29698      2.83%     27.49% |       30397      2.89%     30.38% |       29990      2.85%     33.24% |       32542      3.10%     36.33% |       30867      2.94%     39.27% |       30514      2.90%     42.17% |       30305      2.88%     45.06% |       29597      2.82%     47.87% |       30195      2.87%     50.75% |       31506      3.00%     53.74% |       30314      2.88%     56.63% |       30910      2.94%     59.57% |       31639      3.01%     62.58% |       32127      3.06%     65.64% |       37029      3.52%     69.16% |       31244      2.97%     72.13% |       31248      2.97%     75.11% |       31252      2.97%     78.08% |       31240      2.97%     81.05% |       31168      2.97%     84.02% |       30875      2.94%     86.95% |       32687      3.11%     90.07% |       32157      3.06%     93.12% |       34131      3.25%     96.37% |       38126      3.63%    100.00%
system.ruby.L2Cache_Controller.MT_MB.Exclusive_Unblock::total      1050980                      
system.ruby.L2Cache_Controller.MT_IIB.L1_PUTX |           1    100.00%    100.00% |           0      0.00%    100.00% |           0      0.00%    100.00% |           0      0.00%    100.00% |           0      0.00%    100.00% |           0      0.00%    100.00% |           0      0.00%    100.00% |           0      0.00%    100.00% |           0      0.00%    100.00% |           0      0.00%    100.00% |           0      0.00%    100.00% |           0      0.00%    100.00% |           0      0.00%    100.00% |           0      0.00%    100.00% |           0      0.00%    100.00% |           0      0.00%    100.00% |           0      0.00%    100.00% |           0      0.00%    100.00% |           0      0.00%    100.00% |           0      0.00%    100.00% |           0      0.00%    100.00% |           0      0.00%    100.00% |           0      0.00%    100.00% |           0      0.00%    100.00% |           0      0.00%    100.00% |           0      0.00%    100.00% |           0      0.00%    100.00% |           0      0.00%    100.00% |           0      0.00%    100.00% |           0      0.00%    100.00% |           0      0.00%    100.00% |           0      0.00%    100.00%
system.ruby.L2Cache_Controller.MT_IIB.L1_PUTX::total            1                      
system.ruby.L2Cache_Controller.MT_IIB.WB_Data |           1      1.27%      1.27% |           2      2.53%      3.80% |           1      1.27%      5.06% |           2      2.53%      7.59% |           3      3.80%     11.39% |           3      3.80%     15.19% |           4      5.06%     20.25% |           3      3.80%     24.05% |           5      6.33%     30.38% |           3      3.80%     34.18% |           2      2.53%     36.71% |           2      2.53%     39.24% |           3      3.80%     43.04% |           3      3.80%     46.84% |           4      5.06%     51.90% |           3      3.80%     55.70% |           3      3.80%     59.49% |           1      1.27%     60.76% |           2      2.53%     63.29% |           0      0.00%     63.29% |           1      1.27%     64.56% |           0      0.00%     64.56% |           1      1.27%     65.82% |           2      2.53%     68.35% |           3      3.80%     72.15% |           4      5.06%     77.22% |           4      5.06%     82.28% |           5      6.33%     88.61% |           3      3.80%     92.41% |           2      2.53%     94.94% |           2      2.53%     97.47% |           2      2.53%    100.00%
system.ruby.L2Cache_Controller.MT_IIB.WB_Data::total           79                      
system.ruby.L2Cache_Controller.MT_IIB.WB_Data_clean |          29     38.67%     38.67% |           0      0.00%     38.67% |           0      0.00%     38.67% |          17     22.67%     61.33% |           0      0.00%     61.33% |           0      0.00%     61.33% |           0      0.00%     61.33% |           0      0.00%     61.33% |           0      0.00%     61.33% |           0      0.00%     61.33% |           0      0.00%     61.33% |           0      0.00%     61.33% |           0      0.00%     61.33% |           0      0.00%     61.33% |           0      0.00%     61.33% |           0      0.00%     61.33% |          12     16.00%     77.33% |           0      0.00%     77.33% |           0      0.00%     77.33% |          15     20.00%     97.33% |           0      0.00%     97.33% |           0      0.00%     97.33% |           0      0.00%     97.33% |           0      0.00%     97.33% |           0      0.00%     97.33% |           0      0.00%     97.33% |           0      0.00%     97.33% |           2      2.67%    100.00% |           0      0.00%    100.00% |           0      0.00%    100.00% |           0      0.00%    100.00% |           0      0.00%    100.00%
system.ruby.L2Cache_Controller.MT_IIB.WB_Data_clean::total           75                      
system.ruby.L2Cache_Controller.MT_IIB.Unblock |           0      0.00%      0.00% |           0      0.00%      0.00% |           0      0.00%      0.00% |           1     50.00%     50.00% |           0      0.00%     50.00% |           0      0.00%     50.00% |           0      0.00%     50.00% |           0      0.00%     50.00% |           0      0.00%     50.00% |           0      0.00%     50.00% |           0      0.00%     50.00% |           0      0.00%     50.00% |           0      0.00%     50.00% |           0      0.00%     50.00% |           0      0.00%     50.00% |           0      0.00%     50.00% |           0      0.00%     50.00% |           0      0.00%     50.00% |           0      0.00%     50.00% |           0      0.00%     50.00% |           0      0.00%     50.00% |           0      0.00%     50.00% |           0      0.00%     50.00% |           0      0.00%     50.00% |           0      0.00%     50.00% |           1     50.00%    100.00% |           0      0.00%    100.00% |           0      0.00%    100.00% |           0      0.00%    100.00% |           0      0.00%    100.00% |           0      0.00%    100.00% |           0      0.00%    100.00%
system.ruby.L2Cache_Controller.MT_IIB.Unblock::total            2                      
system.ruby.L2Cache_Controller.MT_IB.WB_Data |           0      0.00%      0.00% |           0      0.00%      0.00% |           0      0.00%      0.00% |           1     50.00%     50.00% |           0      0.00%     50.00% |           0      0.00%     50.00% |           0      0.00%     50.00% |           0      0.00%     50.00% |           0      0.00%     50.00% |           0      0.00%     50.00% |           0      0.00%     50.00% |           0      0.00%     50.00% |           0      0.00%     50.00% |           0      0.00%     50.00% |           0      0.00%     50.00% |           0      0.00%     50.00% |           0      0.00%     50.00% |           0      0.00%     50.00% |           0      0.00%     50.00% |           0      0.00%     50.00% |           0      0.00%     50.00% |           0      0.00%     50.00% |           0      0.00%     50.00% |           0      0.00%     50.00% |           0      0.00%     50.00% |           1     50.00%    100.00% |           0      0.00%    100.00% |           0      0.00%    100.00% |           0      0.00%    100.00% |           0      0.00%    100.00% |           0      0.00%    100.00% |           0      0.00%    100.00%
system.ruby.L2Cache_Controller.MT_IB.WB_Data::total            2                      
system.ruby.L2Cache_Controller.MT_SB.Unblock |          30     19.48%     19.48% |           2      1.30%     20.78% |           1      0.65%     21.43% |          19     12.34%     33.77% |           3      1.95%     35.71% |           3      1.95%     37.66% |           4      2.60%     40.26% |           3      1.95%     42.21% |           5      3.25%     45.45% |           3      1.95%     47.40% |           2      1.30%     48.70% |           2      1.30%     50.00% |           3      1.95%     51.95% |           3      1.95%     53.90% |           4      2.60%     56.49% |           3      1.95%     58.44% |          15      9.74%     68.18% |           1      0.65%     68.83% |           2      1.30%     70.13% |          15      9.74%     79.87% |           1      0.65%     80.52% |           0      0.00%     80.52% |           1      0.65%     81.17% |           2      1.30%     82.47% |           3      1.95%     84.42% |           4      2.60%     87.01% |           4      2.60%     89.61% |           7      4.55%     94.16% |           3      1.95%     96.10% |           2      1.30%     97.40% |           2      1.30%     98.70% |           2      1.30%    100.00%
system.ruby.L2Cache_Controller.MT_SB.Unblock::total          154                      
system.ruby.SimicsNetworkPortInterface_Controller.MessageSend |      132556     20.58%     20.58% |      322029     50.00%     70.58% |       23704      3.68%     74.26% |       24364      3.78%     78.04% |       23489      3.65%     81.69% |       24311      3.77%     85.47% |       23565      3.66%     89.13% |       24441      3.79%     92.92% |       22599      3.51%     96.43% |       23000      3.57%    100.00% |           0      0.00%    100.00% |           0      0.00%    100.00% |           0      0.00%    100.00% |           0      0.00%    100.00% |           0      0.00%    100.00% |           0      0.00%    100.00% |           0      0.00%    100.00% |           0      0.00%    100.00% |           0      0.00%    100.00% |           0      0.00%    100.00% |           0      0.00%    100.00% |           0      0.00%    100.00% |           0      0.00%    100.00% |           0      0.00%    100.00% |           0      0.00%    100.00% |           0      0.00%    100.00% |           0      0.00%    100.00% |           0      0.00%    100.00% |           0      0.00%    100.00% |           0      0.00%    100.00% |           0      0.00%    100.00% |           0      0.00%    100.00%
system.ruby.SimicsNetworkPortInterface_Controller.MessageSend::total       644058                      
system.ruby.SimicsNetworkPortInterface_Controller.MessageRecv |      132556     20.58%     20.58% |      322029     50.00%     70.58% |       23704      3.68%     74.26% |       24364      3.78%     78.04% |       23489      3.65%     81.69% |       24311      3.77%     85.47% |       23565      3.66%     89.13% |       24441      3.79%     92.92% |       22599      3.51%     96.43% |       23000      3.57%    100.00% |           0      0.00%    100.00% |           0      0.00%    100.00% |           0      0.00%    100.00% |           0      0.00%    100.00% |           0      0.00%    100.00% |           0      0.00%    100.00% |           0      0.00%    100.00% |           0      0.00%    100.00% |           0      0.00%    100.00% |           0      0.00%    100.00% |           0      0.00%    100.00% |           0      0.00%    100.00% |           0      0.00%    100.00% |           0      0.00%    100.00% |           0      0.00%    100.00% |           0      0.00%    100.00% |           0      0.00%    100.00% |           0      0.00%    100.00% |           0      0.00%    100.00% |           0      0.00%    100.00% |           0      0.00%    100.00% |           0      0.00%    100.00%
system.ruby.SimicsNetworkPortInterface_Controller.MessageRecv::total       644058                      
system.ruby.SimicsNetworkPortInterface_Controller.A.MessageSend |      132556     20.58%     20.58% |      322029     50.00%     70.58% |       23704      3.68%     74.26% |       24364      3.78%     78.04% |       23489      3.65%     81.69% |       24311      3.77%     85.47% |       23565      3.66%     89.13% |       24441      3.79%     92.92% |       22599      3.51%     96.43% |       23000      3.57%    100.00% |           0      0.00%    100.00% |           0      0.00%    100.00% |           0      0.00%    100.00% |           0      0.00%    100.00% |           0      0.00%    100.00% |           0      0.00%    100.00% |           0      0.00%    100.00% |           0      0.00%    100.00% |           0      0.00%    100.00% |           0      0.00%    100.00% |           0      0.00%    100.00% |           0      0.00%    100.00% |           0      0.00%    100.00% |           0      0.00%    100.00% |           0      0.00%    100.00% |           0      0.00%    100.00% |           0      0.00%    100.00% |           0      0.00%    100.00% |           0      0.00%    100.00% |           0      0.00%    100.00% |           0      0.00%    100.00% |           0      0.00%    100.00%
system.ruby.SimicsNetworkPortInterface_Controller.A.MessageSend::total       644058                      
system.ruby.SimicsNetworkPortInterface_Controller.A.MessageRecv |      132556     20.58%     20.58% |      322029     50.00%     70.58% |       23704      3.68%     74.26% |       24364      3.78%     78.04% |       23489      3.65%     81.69% |       24311      3.77%     85.47% |       23565      3.66%     89.13% |       24441      3.79%     92.92% |       22599      3.51%     96.43% |       23000      3.57%    100.00% |           0      0.00%    100.00% |           0      0.00%    100.00% |           0      0.00%    100.00% |           0      0.00%    100.00% |           0      0.00%    100.00% |           0      0.00%    100.00% |           0      0.00%    100.00% |           0      0.00%    100.00% |           0      0.00%    100.00% |           0      0.00%    100.00% |           0      0.00%    100.00% |           0      0.00%    100.00% |           0      0.00%    100.00% |           0      0.00%    100.00% |           0      0.00%    100.00% |           0      0.00%    100.00% |           0      0.00%    100.00% |           0      0.00%    100.00% |           0      0.00%    100.00% |           0      0.00%    100.00% |           0      0.00%    100.00% |           0      0.00%    100.00%
system.ruby.SimicsNetworkPortInterface_Controller.A.MessageRecv::total       644058                      
system.switch_cpus.kern.inst.arm                    0                       # number of arm instructions executed
system.switch_cpus.kern.inst.quiesce                0                       # number of quiesce instructions executed

---------- End Simulation Statistics   ----------
