
---------- Begin Simulation Statistics ----------
sim_seconds                                  0.119689                       # Number of seconds simulated
sim_ticks                                119688877500                       # Number of ticks simulated
final_tick                               5295856956000                       # Number of ticks from beginning of simulation (restored from checkpoints and never reset)
sim_freq                                 1000000000000                       # Frequency of simulated ticks
host_inst_rate                                   8883                       # Simulator instruction rate (inst/s)
host_op_rate                                    15729                       # Simulator op (including micro ops) rate (op/s)
host_tick_rate                               19442788                       # Simulator tick rate (ticks/s)
host_mem_usage                                6283020                       # Number of bytes of host memory used
host_seconds                                  6155.95                       # Real time elapsed on the host
sim_insts                                    54681210                       # Number of instructions simulated
sim_ops                                      96826088                       # Number of ops (including micro ops) simulated
system.voltage_domain.voltage                       1                       # Voltage in Volts
system.clk_domain.clock                           500                       # Clock period in ticks
system.mem_ctrls0.bytes_read::ruby.dir_cntrl0     42432064                       # Number of bytes read from this memory
system.mem_ctrls0.bytes_read::total          42432064                       # Number of bytes read from this memory
system.mem_ctrls0.bytes_written::ruby.dir_cntrl0     20022912                       # Number of bytes written to this memory
system.mem_ctrls0.bytes_written::total       20022912                       # Number of bytes written to this memory
system.mem_ctrls0.num_reads::ruby.dir_cntrl0       663001                       # Number of read requests responded to by this memory
system.mem_ctrls0.num_reads::total             663001                       # Number of read requests responded to by this memory
system.mem_ctrls0.num_writes::ruby.dir_cntrl0       312858                       # Number of write requests responded to by this memory
system.mem_ctrls0.num_writes::total            312858                       # Number of write requests responded to by this memory
system.mem_ctrls0.bw_read::ruby.dir_cntrl0    354519692                       # Total read bandwidth from this memory (bytes/s)
system.mem_ctrls0.bw_read::total            354519692                       # Total read bandwidth from this memory (bytes/s)
system.mem_ctrls0.bw_write::ruby.dir_cntrl0    167291334                       # Write bandwidth from this memory (bytes/s)
system.mem_ctrls0.bw_write::total           167291334                       # Write bandwidth from this memory (bytes/s)
system.mem_ctrls0.bw_total::ruby.dir_cntrl0    521811026                       # Total bandwidth to/from this memory (bytes/s)
system.mem_ctrls0.bw_total::total           521811026                       # Total bandwidth to/from this memory (bytes/s)
system.mem_ctrls0.readReqs                     663001                       # Number of read requests accepted
system.mem_ctrls0.writeReqs                    312858                       # Number of write requests accepted
system.mem_ctrls0.readBursts                   663001                       # Number of DRAM read bursts, including those serviced by the write queue
system.mem_ctrls0.writeBursts                  312858                       # Number of DRAM write bursts, including those merged in the write queue
system.mem_ctrls0.bytesReadDRAM              42408128                       # Total number of bytes read from DRAM
system.mem_ctrls0.bytesReadWrQ                  23936                       # Total number of bytes read from write queue
system.mem_ctrls0.bytesWritten               20022656                       # Total number of bytes written to DRAM
system.mem_ctrls0.bytesReadSys               42432064                       # Total read bytes from the system interface side
system.mem_ctrls0.bytesWrittenSys            20022912                       # Total written bytes from the system interface side
system.mem_ctrls0.servicedByWrQ                   374                       # Number of DRAM read bursts serviced by the write queue
system.mem_ctrls0.mergedWrBursts                    0                       # Number of DRAM write bursts merged with an existing one
system.mem_ctrls0.neitherReadNorWriteReqs            0                       # Number of requests that are neither read nor write
system.mem_ctrls0.perBankRdBursts::0            41289                       # Per bank write bursts
system.mem_ctrls0.perBankRdBursts::1            41458                       # Per bank write bursts
system.mem_ctrls0.perBankRdBursts::2            40915                       # Per bank write bursts
system.mem_ctrls0.perBankRdBursts::3            41548                       # Per bank write bursts
system.mem_ctrls0.perBankRdBursts::4            41191                       # Per bank write bursts
system.mem_ctrls0.perBankRdBursts::5            41633                       # Per bank write bursts
system.mem_ctrls0.perBankRdBursts::6            42238                       # Per bank write bursts
system.mem_ctrls0.perBankRdBursts::7            41844                       # Per bank write bursts
system.mem_ctrls0.perBankRdBursts::8            40917                       # Per bank write bursts
system.mem_ctrls0.perBankRdBursts::9            41204                       # Per bank write bursts
system.mem_ctrls0.perBankRdBursts::10           40930                       # Per bank write bursts
system.mem_ctrls0.perBankRdBursts::11           41641                       # Per bank write bursts
system.mem_ctrls0.perBankRdBursts::12           40985                       # Per bank write bursts
system.mem_ctrls0.perBankRdBursts::13           41389                       # Per bank write bursts
system.mem_ctrls0.perBankRdBursts::14           41709                       # Per bank write bursts
system.mem_ctrls0.perBankRdBursts::15           41736                       # Per bank write bursts
system.mem_ctrls0.perBankWrBursts::0            19491                       # Per bank write bursts
system.mem_ctrls0.perBankWrBursts::1            19516                       # Per bank write bursts
system.mem_ctrls0.perBankWrBursts::2            19486                       # Per bank write bursts
system.mem_ctrls0.perBankWrBursts::3            19550                       # Per bank write bursts
system.mem_ctrls0.perBankWrBursts::4            19501                       # Per bank write bursts
system.mem_ctrls0.perBankWrBursts::5            19675                       # Per bank write bursts
system.mem_ctrls0.perBankWrBursts::6            19761                       # Per bank write bursts
system.mem_ctrls0.perBankWrBursts::7            19808                       # Per bank write bursts
system.mem_ctrls0.perBankWrBursts::8            19448                       # Per bank write bursts
system.mem_ctrls0.perBankWrBursts::9            19602                       # Per bank write bursts
system.mem_ctrls0.perBankWrBursts::10           19397                       # Per bank write bursts
system.mem_ctrls0.perBankWrBursts::11           19466                       # Per bank write bursts
system.mem_ctrls0.perBankWrBursts::12           19400                       # Per bank write bursts
system.mem_ctrls0.perBankWrBursts::13           19504                       # Per bank write bursts
system.mem_ctrls0.perBankWrBursts::14           19672                       # Per bank write bursts
system.mem_ctrls0.perBankWrBursts::15           19577                       # Per bank write bursts
system.mem_ctrls0.numRdRetry                    60166                       # Number of times read queue was full causing retry
system.mem_ctrls0.numWrRetry                    11545                       # Number of times write queue was full causing retry
system.mem_ctrls0.totGap                 119688473500                       # Total gap between requests
system.mem_ctrls0.readPktSize::0                    0                       # Read request sizes (log2)
system.mem_ctrls0.readPktSize::1                    0                       # Read request sizes (log2)
system.mem_ctrls0.readPktSize::2                    0                       # Read request sizes (log2)
system.mem_ctrls0.readPktSize::3                    0                       # Read request sizes (log2)
system.mem_ctrls0.readPktSize::4                    0                       # Read request sizes (log2)
system.mem_ctrls0.readPktSize::5                    0                       # Read request sizes (log2)
system.mem_ctrls0.readPktSize::6               663001                       # Read request sizes (log2)
system.mem_ctrls0.writePktSize::0                   0                       # Write request sizes (log2)
system.mem_ctrls0.writePktSize::1                   0                       # Write request sizes (log2)
system.mem_ctrls0.writePktSize::2                   0                       # Write request sizes (log2)
system.mem_ctrls0.writePktSize::3                   0                       # Write request sizes (log2)
system.mem_ctrls0.writePktSize::4                   0                       # Write request sizes (log2)
system.mem_ctrls0.writePktSize::5                   0                       # Write request sizes (log2)
system.mem_ctrls0.writePktSize::6              312858                       # Write request sizes (log2)
system.mem_ctrls0.rdQLenPdf::0                 178444                       # What read queue length does an incoming req see
system.mem_ctrls0.rdQLenPdf::1                  23872                       # What read queue length does an incoming req see
system.mem_ctrls0.rdQLenPdf::2                  22823                       # What read queue length does an incoming req see
system.mem_ctrls0.rdQLenPdf::3                  23501                       # What read queue length does an incoming req see
system.mem_ctrls0.rdQLenPdf::4                  23375                       # What read queue length does an incoming req see
system.mem_ctrls0.rdQLenPdf::5                  23243                       # What read queue length does an incoming req see
system.mem_ctrls0.rdQLenPdf::6                  22927                       # What read queue length does an incoming req see
system.mem_ctrls0.rdQLenPdf::7                  22261                       # What read queue length does an incoming req see
system.mem_ctrls0.rdQLenPdf::8                  21326                       # What read queue length does an incoming req see
system.mem_ctrls0.rdQLenPdf::9                  20447                       # What read queue length does an incoming req see
system.mem_ctrls0.rdQLenPdf::10                 19237                       # What read queue length does an incoming req see
system.mem_ctrls0.rdQLenPdf::11                 17948                       # What read queue length does an incoming req see
system.mem_ctrls0.rdQLenPdf::12                 16848                       # What read queue length does an incoming req see
system.mem_ctrls0.rdQLenPdf::13                 15615                       # What read queue length does an incoming req see
system.mem_ctrls0.rdQLenPdf::14                 14429                       # What read queue length does an incoming req see
system.mem_ctrls0.rdQLenPdf::15                 13211                       # What read queue length does an incoming req see
system.mem_ctrls0.rdQLenPdf::16                 12057                       # What read queue length does an incoming req see
system.mem_ctrls0.rdQLenPdf::17                 11456                       # What read queue length does an incoming req see
system.mem_ctrls0.rdQLenPdf::18                 10499                       # What read queue length does an incoming req see
system.mem_ctrls0.rdQLenPdf::19                  9759                       # What read queue length does an incoming req see
system.mem_ctrls0.rdQLenPdf::20                  9134                       # What read queue length does an incoming req see
system.mem_ctrls0.rdQLenPdf::21                  8363                       # What read queue length does an incoming req see
system.mem_ctrls0.rdQLenPdf::22                  7870                       # What read queue length does an incoming req see
system.mem_ctrls0.rdQLenPdf::23                  7352                       # What read queue length does an incoming req see
system.mem_ctrls0.rdQLenPdf::24                  6782                       # What read queue length does an incoming req see
system.mem_ctrls0.rdQLenPdf::25                  6354                       # What read queue length does an incoming req see
system.mem_ctrls0.rdQLenPdf::26                  6019                       # What read queue length does an incoming req see
system.mem_ctrls0.rdQLenPdf::27                  5845                       # What read queue length does an incoming req see
system.mem_ctrls0.rdQLenPdf::28                  5570                       # What read queue length does an incoming req see
system.mem_ctrls0.rdQLenPdf::29                  5267                       # What read queue length does an incoming req see
system.mem_ctrls0.rdQLenPdf::30                  5188                       # What read queue length does an incoming req see
system.mem_ctrls0.rdQLenPdf::31                 65605                       # What read queue length does an incoming req see
system.mem_ctrls0.wrQLenPdf::0                  45085                       # What write queue length does an incoming req see
system.mem_ctrls0.wrQLenPdf::1                  50465                       # What write queue length does an incoming req see
system.mem_ctrls0.wrQLenPdf::2                  53535                       # What write queue length does an incoming req see
system.mem_ctrls0.wrQLenPdf::3                  54493                       # What write queue length does an incoming req see
system.mem_ctrls0.wrQLenPdf::4                  54542                       # What write queue length does an incoming req see
system.mem_ctrls0.wrQLenPdf::5                  17251                       # What write queue length does an incoming req see
system.mem_ctrls0.wrQLenPdf::6                  15956                       # What write queue length does an incoming req see
system.mem_ctrls0.wrQLenPdf::7                  21531                       # What write queue length does an incoming req see
system.mem_ctrls0.bytesPerActivate::samples       316590                       # Bytes accessed per row activation
system.mem_ctrls0.bytesPerActivate::mean   197.194757                       # Bytes accessed per row activation
system.mem_ctrls0.bytesPerActivate::gmean   151.101202                       # Bytes accessed per row activation
system.mem_ctrls0.bytesPerActivate::stdev   149.297461                       # Bytes accessed per row activation
system.mem_ctrls0.bytesPerActivate::0-127       106352     33.59%     33.59% # Bytes accessed per row activation
system.mem_ctrls0.bytesPerActivate::128-255        98169     31.01%     64.60% # Bytes accessed per row activation
system.mem_ctrls0.bytesPerActivate::256-383        73487     23.21%     87.81% # Bytes accessed per row activation
system.mem_ctrls0.bytesPerActivate::384-511        19179      6.06%     93.87% # Bytes accessed per row activation
system.mem_ctrls0.bytesPerActivate::512-639        14335      4.53%     98.40% # Bytes accessed per row activation
system.mem_ctrls0.bytesPerActivate::640-767         2693      0.85%     99.25% # Bytes accessed per row activation
system.mem_ctrls0.bytesPerActivate::768-895         1248      0.39%     99.64% # Bytes accessed per row activation
system.mem_ctrls0.bytesPerActivate::896-1023          716      0.23%     99.87% # Bytes accessed per row activation
system.mem_ctrls0.bytesPerActivate::1024-1151          411      0.13%    100.00% # Bytes accessed per row activation
system.mem_ctrls0.bytesPerActivate::total       316590                       # Bytes accessed per row activation
system.mem_ctrls0.rdPerTurnAround::samples        46947                       # Reads before turning the bus around for writes
system.mem_ctrls0.rdPerTurnAround::mean     14.114129                       # Reads before turning the bus around for writes
system.mem_ctrls0.rdPerTurnAround::stdev    29.556464                       # Reads before turning the bus around for writes
system.mem_ctrls0.rdPerTurnAround::0-127        46647     99.36%     99.36% # Reads before turning the bus around for writes
system.mem_ctrls0.rdPerTurnAround::128-255          238      0.51%     99.87% # Reads before turning the bus around for writes
system.mem_ctrls0.rdPerTurnAround::256-383           49      0.10%     99.97% # Reads before turning the bus around for writes
system.mem_ctrls0.rdPerTurnAround::384-511            8      0.02%     99.99% # Reads before turning the bus around for writes
system.mem_ctrls0.rdPerTurnAround::640-767            3      0.01%    100.00% # Reads before turning the bus around for writes
system.mem_ctrls0.rdPerTurnAround::768-895            1      0.00%    100.00% # Reads before turning the bus around for writes
system.mem_ctrls0.rdPerTurnAround::3968-4095            1      0.00%    100.00% # Reads before turning the bus around for writes
system.mem_ctrls0.rdPerTurnAround::total        46947                       # Reads before turning the bus around for writes
system.mem_ctrls0.wrPerTurnAround::samples        46947                       # Writes before turning the bus around for reads
system.mem_ctrls0.wrPerTurnAround::mean      6.663983                       # Writes before turning the bus around for reads
system.mem_ctrls0.wrPerTurnAround::gmean     6.159947                       # Writes before turning the bus around for reads
system.mem_ctrls0.wrPerTurnAround::stdev     3.146552                       # Writes before turning the bus around for reads
system.mem_ctrls0.wrPerTurnAround::4-7          36342     77.41%     77.41% # Writes before turning the bus around for reads
system.mem_ctrls0.wrPerTurnAround::8-11          5402     11.51%     88.92% # Writes before turning the bus around for reads
system.mem_ctrls0.wrPerTurnAround::12-15         2886      6.15%     95.06% # Writes before turning the bus around for reads
system.mem_ctrls0.wrPerTurnAround::16-19         2317      4.94%    100.00% # Writes before turning the bus around for reads
system.mem_ctrls0.wrPerTurnAround::total        46947                       # Writes before turning the bus around for reads
system.mem_ctrls0.totQLat                 73874520607                       # Total ticks spent queuing
system.mem_ctrls0.totMemAccLat            86298776857                       # Total ticks spent from burst creation until serviced by the DRAM
system.mem_ctrls0.totBusLat                3313135000                       # Total ticks spent in databus transfers
system.mem_ctrls0.avgQLat                   111487.34                       # Average queueing delay per DRAM burst
system.mem_ctrls0.avgBusLat                   5000.00                       # Average bus latency per DRAM burst
system.mem_ctrls0.avgMemAccLat              130237.34                       # Average memory access latency per DRAM burst
system.mem_ctrls0.avgRdBW                      354.32                       # Average DRAM read bandwidth in MiByte/s
system.mem_ctrls0.avgWrBW                      167.29                       # Average achieved write bandwidth in MiByte/s
system.mem_ctrls0.avgRdBWSys                   354.52                       # Average system read bandwidth in MiByte/s
system.mem_ctrls0.avgWrBWSys                   167.29                       # Average system write bandwidth in MiByte/s
system.mem_ctrls0.peakBW                     12800.00                       # Theoretical peak bandwidth in MiByte/s
system.mem_ctrls0.busUtil                        4.08                       # Data bus utilization in percentage
system.mem_ctrls0.busUtilRead                    2.77                       # Data bus utilization in percentage for reads
system.mem_ctrls0.busUtilWrite                   1.31                       # Data bus utilization in percentage for writes
system.mem_ctrls0.avgRdQLen                      1.75                       # Average read queue length when enqueuing
system.mem_ctrls0.avgWrQLen                      3.04                       # Average write queue length when enqueuing
system.mem_ctrls0.readRowHits                  488346                       # Number of row buffer hits during reads
system.mem_ctrls0.writeRowHits                 170536                       # Number of row buffer hits during writes
system.mem_ctrls0.readRowHitRate                73.70                       # Row buffer hit rate for reads
system.mem_ctrls0.writeRowHitRate               54.51                       # Row buffer hit rate for writes
system.mem_ctrls0.avgGap                    122649.35                       # Average gap between requests
system.mem_ctrls0.pageHitRate                   67.54                       # Row buffer hit rate, read and write combined
system.mem_ctrls0.memoryStateTime::IDLE   20209731250                       # Time in different power states
system.mem_ctrls0.memoryStateTime::REF     3996460000                       # Time in different power states
system.mem_ctrls0.memoryStateTime::PRE_PDN            0                       # Time in different power states
system.mem_ctrls0.memoryStateTime::ACT    95476531250                       # Time in different power states
system.mem_ctrls0.memoryStateTime::ACT_PDN            0                       # Time in different power states
system.mem_ctrls0.actEnergy::0             1202977440                       # Energy for activate commands per rank (pJ)
system.mem_ctrls0.actEnergy::1             1190291760                       # Energy for activate commands per rank (pJ)
system.mem_ctrls0.preEnergy::0              656386500                       # Energy for precharge commands per rank (pJ)
system.mem_ctrls0.preEnergy::1              649464750                       # Energy for precharge commands per rank (pJ)
system.mem_ctrls0.readEnergy::0            2590278600                       # Energy for read commands per rank (pJ)
system.mem_ctrls0.readEnergy::1            2577751800                       # Energy for read commands per rank (pJ)
system.mem_ctrls0.writeEnergy::0           1015940880                       # Energy for write commands per rank (pJ)
system.mem_ctrls0.writeEnergy::1           1011281760                       # Energy for write commands per rank (pJ)
system.mem_ctrls0.refreshEnergy::0         7817075760                       # Energy for refresh commands per rank (pJ)
system.mem_ctrls0.refreshEnergy::1         7817075760                       # Energy for refresh commands per rank (pJ)
system.mem_ctrls0.actBackEnergy::0        49358399310                       # Energy for active background per rank (pJ)
system.mem_ctrls0.actBackEnergy::1        48884467680                       # Energy for active background per rank (pJ)
system.mem_ctrls0.preBackEnergy::0        28512783750                       # Energy for precharge background per rank (pJ)
system.mem_ctrls0.preBackEnergy::1        28928513250                       # Energy for precharge background per rank (pJ)
system.mem_ctrls0.totalEnergy::0          91153842240                       # Total energy per rank (pJ)
system.mem_ctrls0.totalEnergy::1          91058846760                       # Total energy per rank (pJ)
system.mem_ctrls0.averagePower::0          761.629171                       # Core power per rank (mW)
system.mem_ctrls0.averagePower::1          760.835443                       # Core power per rank (mW)
system.mem_ctrls1.bytes_read::ruby.dir_cntrl1     41903936                       # Number of bytes read from this memory
system.mem_ctrls1.bytes_read::total          41903936                       # Number of bytes read from this memory
system.mem_ctrls1.bytes_written::ruby.dir_cntrl1     19473024                       # Number of bytes written to this memory
system.mem_ctrls1.bytes_written::total       19473024                       # Number of bytes written to this memory
system.mem_ctrls1.num_reads::ruby.dir_cntrl1       654749                       # Number of read requests responded to by this memory
system.mem_ctrls1.num_reads::total             654749                       # Number of read requests responded to by this memory
system.mem_ctrls1.num_writes::ruby.dir_cntrl1       304266                       # Number of write requests responded to by this memory
system.mem_ctrls1.num_writes::total            304266                       # Number of write requests responded to by this memory
system.mem_ctrls1.bw_read::ruby.dir_cntrl1    350107185                       # Total read bandwidth from this memory (bytes/s)
system.mem_ctrls1.bw_read::total            350107185                       # Total read bandwidth from this memory (bytes/s)
system.mem_ctrls1.bw_write::ruby.dir_cntrl1    162697023                       # Write bandwidth from this memory (bytes/s)
system.mem_ctrls1.bw_write::total           162697023                       # Write bandwidth from this memory (bytes/s)
system.mem_ctrls1.bw_total::ruby.dir_cntrl1    512804208                       # Total bandwidth to/from this memory (bytes/s)
system.mem_ctrls1.bw_total::total           512804208                       # Total bandwidth to/from this memory (bytes/s)
system.mem_ctrls1.readReqs                     654749                       # Number of read requests accepted
system.mem_ctrls1.writeReqs                    304266                       # Number of write requests accepted
system.mem_ctrls1.readBursts                   654749                       # Number of DRAM read bursts, including those serviced by the write queue
system.mem_ctrls1.writeBursts                  304266                       # Number of DRAM write bursts, including those merged in the write queue
system.mem_ctrls1.bytesReadDRAM              41882368                       # Total number of bytes read from DRAM
system.mem_ctrls1.bytesReadWrQ                  21568                       # Total number of bytes read from write queue
system.mem_ctrls1.bytesWritten               19472768                       # Total number of bytes written to DRAM
system.mem_ctrls1.bytesReadSys               41903936                       # Total read bytes from the system interface side
system.mem_ctrls1.bytesWrittenSys            19473024                       # Total written bytes from the system interface side
system.mem_ctrls1.servicedByWrQ                   337                       # Number of DRAM read bursts serviced by the write queue
system.mem_ctrls1.mergedWrBursts                    0                       # Number of DRAM write bursts merged with an existing one
system.mem_ctrls1.neitherReadNorWriteReqs            0                       # Number of requests that are neither read nor write
system.mem_ctrls1.perBankRdBursts::0            40899                       # Per bank write bursts
system.mem_ctrls1.perBankRdBursts::1            40896                       # Per bank write bursts
system.mem_ctrls1.perBankRdBursts::2            40375                       # Per bank write bursts
system.mem_ctrls1.perBankRdBursts::3            40690                       # Per bank write bursts
system.mem_ctrls1.perBankRdBursts::4            40974                       # Per bank write bursts
system.mem_ctrls1.perBankRdBursts::5            40936                       # Per bank write bursts
system.mem_ctrls1.perBankRdBursts::6            42075                       # Per bank write bursts
system.mem_ctrls1.perBankRdBursts::7            41272                       # Per bank write bursts
system.mem_ctrls1.perBankRdBursts::8            40505                       # Per bank write bursts
system.mem_ctrls1.perBankRdBursts::9            40655                       # Per bank write bursts
system.mem_ctrls1.perBankRdBursts::10           40393                       # Per bank write bursts
system.mem_ctrls1.perBankRdBursts::11           40954                       # Per bank write bursts
system.mem_ctrls1.perBankRdBursts::12           40679                       # Per bank write bursts
system.mem_ctrls1.perBankRdBursts::13           40743                       # Per bank write bursts
system.mem_ctrls1.perBankRdBursts::14           41297                       # Per bank write bursts
system.mem_ctrls1.perBankRdBursts::15           41069                       # Per bank write bursts
system.mem_ctrls1.perBankWrBursts::0            18957                       # Per bank write bursts
system.mem_ctrls1.perBankWrBursts::1            19004                       # Per bank write bursts
system.mem_ctrls1.perBankWrBursts::2            18941                       # Per bank write bursts
system.mem_ctrls1.perBankWrBursts::3            18985                       # Per bank write bursts
system.mem_ctrls1.perBankWrBursts::4            19069                       # Per bank write bursts
system.mem_ctrls1.perBankWrBursts::5            19065                       # Per bank write bursts
system.mem_ctrls1.perBankWrBursts::6            19285                       # Per bank write bursts
system.mem_ctrls1.perBankWrBursts::7            19219                       # Per bank write bursts
system.mem_ctrls1.perBankWrBursts::8            18861                       # Per bank write bursts
system.mem_ctrls1.perBankWrBursts::9            19075                       # Per bank write bursts
system.mem_ctrls1.perBankWrBursts::10           18816                       # Per bank write bursts
system.mem_ctrls1.perBankWrBursts::11           18952                       # Per bank write bursts
system.mem_ctrls1.perBankWrBursts::12           18965                       # Per bank write bursts
system.mem_ctrls1.perBankWrBursts::13           18937                       # Per bank write bursts
system.mem_ctrls1.perBankWrBursts::14           19116                       # Per bank write bursts
system.mem_ctrls1.perBankWrBursts::15           19015                       # Per bank write bursts
system.mem_ctrls1.numRdRetry                    64368                       # Number of times read queue was full causing retry
system.mem_ctrls1.numWrRetry                    11206                       # Number of times write queue was full causing retry
system.mem_ctrls1.totGap                 119688211000                       # Total gap between requests
system.mem_ctrls1.readPktSize::0                    0                       # Read request sizes (log2)
system.mem_ctrls1.readPktSize::1                    0                       # Read request sizes (log2)
system.mem_ctrls1.readPktSize::2                    0                       # Read request sizes (log2)
system.mem_ctrls1.readPktSize::3                    0                       # Read request sizes (log2)
system.mem_ctrls1.readPktSize::4                    0                       # Read request sizes (log2)
system.mem_ctrls1.readPktSize::5                    0                       # Read request sizes (log2)
system.mem_ctrls1.readPktSize::6               654749                       # Read request sizes (log2)
system.mem_ctrls1.writePktSize::0                   0                       # Write request sizes (log2)
system.mem_ctrls1.writePktSize::1                   0                       # Write request sizes (log2)
system.mem_ctrls1.writePktSize::2                   0                       # Write request sizes (log2)
system.mem_ctrls1.writePktSize::3                   0                       # Write request sizes (log2)
system.mem_ctrls1.writePktSize::4                   0                       # Write request sizes (log2)
system.mem_ctrls1.writePktSize::5                   0                       # Write request sizes (log2)
system.mem_ctrls1.writePktSize::6              304266                       # Write request sizes (log2)
system.mem_ctrls1.rdQLenPdf::0                 171180                       # What read queue length does an incoming req see
system.mem_ctrls1.rdQLenPdf::1                  22740                       # What read queue length does an incoming req see
system.mem_ctrls1.rdQLenPdf::2                  22945                       # What read queue length does an incoming req see
system.mem_ctrls1.rdQLenPdf::3                  23415                       # What read queue length does an incoming req see
system.mem_ctrls1.rdQLenPdf::4                  23698                       # What read queue length does an incoming req see
system.mem_ctrls1.rdQLenPdf::5                  23861                       # What read queue length does an incoming req see
system.mem_ctrls1.rdQLenPdf::6                  23404                       # What read queue length does an incoming req see
system.mem_ctrls1.rdQLenPdf::7                  22536                       # What read queue length does an incoming req see
system.mem_ctrls1.rdQLenPdf::8                  21307                       # What read queue length does an incoming req see
system.mem_ctrls1.rdQLenPdf::9                  20435                       # What read queue length does an incoming req see
system.mem_ctrls1.rdQLenPdf::10                 19159                       # What read queue length does an incoming req see
system.mem_ctrls1.rdQLenPdf::11                 17882                       # What read queue length does an incoming req see
system.mem_ctrls1.rdQLenPdf::12                 16490                       # What read queue length does an incoming req see
system.mem_ctrls1.rdQLenPdf::13                 15338                       # What read queue length does an incoming req see
system.mem_ctrls1.rdQLenPdf::14                 14121                       # What read queue length does an incoming req see
system.mem_ctrls1.rdQLenPdf::15                 12894                       # What read queue length does an incoming req see
system.mem_ctrls1.rdQLenPdf::16                 11825                       # What read queue length does an incoming req see
system.mem_ctrls1.rdQLenPdf::17                 10836                       # What read queue length does an incoming req see
system.mem_ctrls1.rdQLenPdf::18                  9957                       # What read queue length does an incoming req see
system.mem_ctrls1.rdQLenPdf::19                  9275                       # What read queue length does an incoming req see
system.mem_ctrls1.rdQLenPdf::20                  8524                       # What read queue length does an incoming req see
system.mem_ctrls1.rdQLenPdf::21                  8052                       # What read queue length does an incoming req see
system.mem_ctrls1.rdQLenPdf::22                  7383                       # What read queue length does an incoming req see
system.mem_ctrls1.rdQLenPdf::23                  7008                       # What read queue length does an incoming req see
system.mem_ctrls1.rdQLenPdf::24                  6567                       # What read queue length does an incoming req see
system.mem_ctrls1.rdQLenPdf::25                  6289                       # What read queue length does an incoming req see
system.mem_ctrls1.rdQLenPdf::26                  5997                       # What read queue length does an incoming req see
system.mem_ctrls1.rdQLenPdf::27                  5628                       # What read queue length does an incoming req see
system.mem_ctrls1.rdQLenPdf::28                  5367                       # What read queue length does an incoming req see
system.mem_ctrls1.rdQLenPdf::29                  5157                       # What read queue length does an incoming req see
system.mem_ctrls1.rdQLenPdf::30                  5265                       # What read queue length does an incoming req see
system.mem_ctrls1.rdQLenPdf::31                 69877                       # What read queue length does an incoming req see
system.mem_ctrls1.wrQLenPdf::0                  43500                       # What write queue length does an incoming req see
system.mem_ctrls1.wrQLenPdf::1                  48767                       # What write queue length does an incoming req see
system.mem_ctrls1.wrQLenPdf::2                  51383                       # What write queue length does an incoming req see
system.mem_ctrls1.wrQLenPdf::3                  52782                       # What write queue length does an incoming req see
system.mem_ctrls1.wrQLenPdf::4                  52963                       # What write queue length does an incoming req see
system.mem_ctrls1.wrQLenPdf::5                  17401                       # What write queue length does an incoming req see
system.mem_ctrls1.wrQLenPdf::6                  16148                       # What write queue length does an incoming req see
system.mem_ctrls1.wrQLenPdf::7                  21322                       # What write queue length does an incoming req see
system.mem_ctrls1.bytesPerActivate::samples       303169                       # Bytes accessed per row activation
system.mem_ctrls1.bytesPerActivate::mean   202.375520                       # Bytes accessed per row activation
system.mem_ctrls1.bytesPerActivate::gmean   154.924204                       # Bytes accessed per row activation
system.mem_ctrls1.bytesPerActivate::stdev   151.704794                       # Bytes accessed per row activation
system.mem_ctrls1.bytesPerActivate::0-127        99518     32.83%     32.83% # Bytes accessed per row activation
system.mem_ctrls1.bytesPerActivate::128-255        91194     30.08%     62.91% # Bytes accessed per row activation
system.mem_ctrls1.bytesPerActivate::256-383        73598     24.28%     87.18% # Bytes accessed per row activation
system.mem_ctrls1.bytesPerActivate::384-511        19217      6.34%     93.52% # Bytes accessed per row activation
system.mem_ctrls1.bytesPerActivate::512-639        14387      4.75%     98.27% # Bytes accessed per row activation
system.mem_ctrls1.bytesPerActivate::640-767         2773      0.91%     99.18% # Bytes accessed per row activation
system.mem_ctrls1.bytesPerActivate::768-895         1279      0.42%     99.60% # Bytes accessed per row activation
system.mem_ctrls1.bytesPerActivate::896-1023          796      0.26%     99.87% # Bytes accessed per row activation
system.mem_ctrls1.bytesPerActivate::1024-1151          407      0.13%    100.00% # Bytes accessed per row activation
system.mem_ctrls1.bytesPerActivate::total       303169                       # Bytes accessed per row activation
system.mem_ctrls1.rdPerTurnAround::samples        45327                       # Reads before turning the bus around for writes
system.mem_ctrls1.rdPerTurnAround::mean     14.437377                       # Reads before turning the bus around for writes
system.mem_ctrls1.rdPerTurnAround::stdev    27.840043                       # Reads before turning the bus around for writes
system.mem_ctrls1.rdPerTurnAround::0-127        45039     99.36%     99.36% # Reads before turning the bus around for writes
system.mem_ctrls1.rdPerTurnAround::128-255          229      0.51%     99.87% # Reads before turning the bus around for writes
system.mem_ctrls1.rdPerTurnAround::256-383           41      0.09%     99.96% # Reads before turning the bus around for writes
system.mem_ctrls1.rdPerTurnAround::384-511           10      0.02%     99.98% # Reads before turning the bus around for writes
system.mem_ctrls1.rdPerTurnAround::512-639            3      0.01%     99.99% # Reads before turning the bus around for writes
system.mem_ctrls1.rdPerTurnAround::640-767            2      0.00%     99.99% # Reads before turning the bus around for writes
system.mem_ctrls1.rdPerTurnAround::768-895            1      0.00%    100.00% # Reads before turning the bus around for writes
system.mem_ctrls1.rdPerTurnAround::1152-1279            1      0.00%    100.00% # Reads before turning the bus around for writes
system.mem_ctrls1.rdPerTurnAround::2816-2943            1      0.00%    100.00% # Reads before turning the bus around for writes
system.mem_ctrls1.rdPerTurnAround::total        45327                       # Reads before turning the bus around for writes
system.mem_ctrls1.wrPerTurnAround::samples        45327                       # Writes before turning the bus around for reads
system.mem_ctrls1.wrPerTurnAround::mean      6.712600                       # Writes before turning the bus around for reads
system.mem_ctrls1.wrPerTurnAround::gmean     6.196391                       # Writes before turning the bus around for reads
system.mem_ctrls1.wrPerTurnAround::stdev     3.179987                       # Writes before turning the bus around for reads
system.mem_ctrls1.wrPerTurnAround::4-7          34766     76.70%     76.70% # Writes before turning the bus around for reads
system.mem_ctrls1.wrPerTurnAround::8-11          5439     12.00%     88.70% # Writes before turning the bus around for reads
system.mem_ctrls1.wrPerTurnAround::12-15         2859      6.31%     95.01% # Writes before turning the bus around for reads
system.mem_ctrls1.wrPerTurnAround::16-19         2263      4.99%    100.00% # Writes before turning the bus around for reads
system.mem_ctrls1.wrPerTurnAround::total        45327                       # Writes before turning the bus around for reads
system.mem_ctrls1.totQLat                 74134297283                       # Total ticks spent queuing
system.mem_ctrls1.totMemAccLat            86404522283                       # Total ticks spent from burst creation until serviced by the DRAM
system.mem_ctrls1.totBusLat                3272060000                       # Total ticks spent in databus transfers
system.mem_ctrls1.avgQLat                   113283.83                       # Average queueing delay per DRAM burst
system.mem_ctrls1.avgBusLat                   5000.00                       # Average bus latency per DRAM burst
system.mem_ctrls1.avgMemAccLat              132033.83                       # Average memory access latency per DRAM burst
system.mem_ctrls1.avgRdBW                      349.93                       # Average DRAM read bandwidth in MiByte/s
system.mem_ctrls1.avgWrBW                      162.69                       # Average achieved write bandwidth in MiByte/s
system.mem_ctrls1.avgRdBWSys                   350.11                       # Average system read bandwidth in MiByte/s
system.mem_ctrls1.avgWrBWSys                   162.70                       # Average system write bandwidth in MiByte/s
system.mem_ctrls1.peakBW                     12800.00                       # Theoretical peak bandwidth in MiByte/s
system.mem_ctrls1.busUtil                        4.00                       # Data bus utilization in percentage
system.mem_ctrls1.busUtilRead                    2.73                       # Data bus utilization in percentage for reads
system.mem_ctrls1.busUtilWrite                   1.27                       # Data bus utilization in percentage for writes
system.mem_ctrls1.avgRdQLen                      1.75                       # Average read queue length when enqueuing
system.mem_ctrls1.avgWrQLen                      3.03                       # Average write queue length when enqueuing
system.mem_ctrls1.readRowHits                  485600                       # Number of row buffer hits during reads
system.mem_ctrls1.writeRowHits                 169896                       # Number of row buffer hits during writes
system.mem_ctrls1.readRowHitRate                74.20                       # Row buffer hit rate for reads
system.mem_ctrls1.writeRowHitRate               55.84                       # Row buffer hit rate for writes
system.mem_ctrls1.avgGap                    124803.27                       # Average gap between requests
system.mem_ctrls1.pageHitRate                   68.37                       # Row buffer hit rate, read and write combined
system.mem_ctrls1.memoryStateTime::IDLE   20695461500                       # Time in different power states
system.mem_ctrls1.memoryStateTime::REF     3996460000                       # Time in different power states
system.mem_ctrls1.memoryStateTime::PRE_PDN            0                       # Time in different power states
system.mem_ctrls1.memoryStateTime::ACT    94991381500                       # Time in different power states
system.mem_ctrls1.memoryStateTime::ACT_PDN            0                       # Time in different power states
system.mem_ctrls1.actEnergy::0             1154835360                       # Energy for activate commands per rank (pJ)
system.mem_ctrls1.actEnergy::1             1137031560                       # Energy for activate commands per rank (pJ)
system.mem_ctrls1.preEnergy::0              630118500                       # Energy for precharge commands per rank (pJ)
system.mem_ctrls1.preEnergy::1              620404125                       # Energy for precharge commands per rank (pJ)
system.mem_ctrls1.readEnergy::0            2559180000                       # Energy for read commands per rank (pJ)
system.mem_ctrls1.readEnergy::1            2544937200                       # Energy for read commands per rank (pJ)
system.mem_ctrls1.writeEnergy::0            988310160                       # Energy for write commands per rank (pJ)
system.mem_ctrls1.writeEnergy::1            983242800                       # Energy for write commands per rank (pJ)
system.mem_ctrls1.refreshEnergy::0         7817075760                       # Energy for refresh commands per rank (pJ)
system.mem_ctrls1.refreshEnergy::1         7817075760                       # Energy for refresh commands per rank (pJ)
system.mem_ctrls1.actBackEnergy::0        48146978025                       # Energy for active background per rank (pJ)
system.mem_ctrls1.actBackEnergy::1        47924917425                       # Energy for active background per rank (pJ)
system.mem_ctrls1.preBackEnergy::0        29575434000                       # Energy for precharge background per rank (pJ)
system.mem_ctrls1.preBackEnergy::1        29770224000                       # Energy for precharge background per rank (pJ)
system.mem_ctrls1.totalEnergy::0          90871931805                       # Total energy per rank (pJ)
system.mem_ctrls1.totalEnergy::1          90797832870                       # Total energy per rank (pJ)
system.mem_ctrls1.averagePower::0          759.273689                       # Core power per rank (mW)
system.mem_ctrls1.averagePower::1          758.654561                       # Core power per rank (mW)
system.mem_ctrls2.bytes_read::ruby.dir_cntrl2     41830144                       # Number of bytes read from this memory
system.mem_ctrls2.bytes_read::total          41830144                       # Number of bytes read from this memory
system.mem_ctrls2.bytes_written::ruby.dir_cntrl2     19461056                       # Number of bytes written to this memory
system.mem_ctrls2.bytes_written::total       19461056                       # Number of bytes written to this memory
system.mem_ctrls2.num_reads::ruby.dir_cntrl2       653596                       # Number of read requests responded to by this memory
system.mem_ctrls2.num_reads::total             653596                       # Number of read requests responded to by this memory
system.mem_ctrls2.num_writes::ruby.dir_cntrl2       304079                       # Number of write requests responded to by this memory
system.mem_ctrls2.num_writes::total            304079                       # Number of write requests responded to by this memory
system.mem_ctrls2.bw_read::ruby.dir_cntrl2    349490653                       # Total read bandwidth from this memory (bytes/s)
system.mem_ctrls2.bw_read::total            349490653                       # Total read bandwidth from this memory (bytes/s)
system.mem_ctrls2.bw_write::ruby.dir_cntrl2    162597030                       # Write bandwidth from this memory (bytes/s)
system.mem_ctrls2.bw_write::total           162597030                       # Write bandwidth from this memory (bytes/s)
system.mem_ctrls2.bw_total::ruby.dir_cntrl2    512087683                       # Total bandwidth to/from this memory (bytes/s)
system.mem_ctrls2.bw_total::total           512087683                       # Total bandwidth to/from this memory (bytes/s)
system.mem_ctrls2.readReqs                     653596                       # Number of read requests accepted
system.mem_ctrls2.writeReqs                    304079                       # Number of write requests accepted
system.mem_ctrls2.readBursts                   653596                       # Number of DRAM read bursts, including those serviced by the write queue
system.mem_ctrls2.writeBursts                  304079                       # Number of DRAM write bursts, including those merged in the write queue
system.mem_ctrls2.bytesReadDRAM              41810432                       # Total number of bytes read from DRAM
system.mem_ctrls2.bytesReadWrQ                  19712                       # Total number of bytes read from write queue
system.mem_ctrls2.bytesWritten               19460928                       # Total number of bytes written to DRAM
system.mem_ctrls2.bytesReadSys               41830144                       # Total read bytes from the system interface side
system.mem_ctrls2.bytesWrittenSys            19461056                       # Total written bytes from the system interface side
system.mem_ctrls2.servicedByWrQ                   308                       # Number of DRAM read bursts serviced by the write queue
system.mem_ctrls2.mergedWrBursts                    0                       # Number of DRAM write bursts merged with an existing one
system.mem_ctrls2.neitherReadNorWriteReqs            0                       # Number of requests that are neither read nor write
system.mem_ctrls2.perBankRdBursts::0            40904                       # Per bank write bursts
system.mem_ctrls2.perBankRdBursts::1            40608                       # Per bank write bursts
system.mem_ctrls2.perBankRdBursts::2            40415                       # Per bank write bursts
system.mem_ctrls2.perBankRdBursts::3            40774                       # Per bank write bursts
system.mem_ctrls2.perBankRdBursts::4            40981                       # Per bank write bursts
system.mem_ctrls2.perBankRdBursts::5            40840                       # Per bank write bursts
system.mem_ctrls2.perBankRdBursts::6            41789                       # Per bank write bursts
system.mem_ctrls2.perBankRdBursts::7            41203                       # Per bank write bursts
system.mem_ctrls2.perBankRdBursts::8            40499                       # Per bank write bursts
system.mem_ctrls2.perBankRdBursts::9            40359                       # Per bank write bursts
system.mem_ctrls2.perBankRdBursts::10           40407                       # Per bank write bursts
system.mem_ctrls2.perBankRdBursts::11           40964                       # Per bank write bursts
system.mem_ctrls2.perBankRdBursts::12           40702                       # Per bank write bursts
system.mem_ctrls2.perBankRdBursts::13           40628                       # Per bank write bursts
system.mem_ctrls2.perBankRdBursts::14           41188                       # Per bank write bursts
system.mem_ctrls2.perBankRdBursts::15           41027                       # Per bank write bursts
system.mem_ctrls2.perBankWrBursts::0            18973                       # Per bank write bursts
system.mem_ctrls2.perBankWrBursts::1            18913                       # Per bank write bursts
system.mem_ctrls2.perBankWrBursts::2            18905                       # Per bank write bursts
system.mem_ctrls2.perBankWrBursts::3            19074                       # Per bank write bursts
system.mem_ctrls2.perBankWrBursts::4            19031                       # Per bank write bursts
system.mem_ctrls2.perBankWrBursts::5            19009                       # Per bank write bursts
system.mem_ctrls2.perBankWrBursts::6            19119                       # Per bank write bursts
system.mem_ctrls2.perBankWrBursts::7            19349                       # Per bank write bursts
system.mem_ctrls2.perBankWrBursts::8            18913                       # Per bank write bursts
system.mem_ctrls2.perBankWrBursts::9            19003                       # Per bank write bursts
system.mem_ctrls2.perBankWrBursts::10           18817                       # Per bank write bursts
system.mem_ctrls2.perBankWrBursts::11           19024                       # Per bank write bursts
system.mem_ctrls2.perBankWrBursts::12           18916                       # Per bank write bursts
system.mem_ctrls2.perBankWrBursts::13           18925                       # Per bank write bursts
system.mem_ctrls2.perBankWrBursts::14           19025                       # Per bank write bursts
system.mem_ctrls2.perBankWrBursts::15           19081                       # Per bank write bursts
system.mem_ctrls2.numRdRetry                    60013                       # Number of times read queue was full causing retry
system.mem_ctrls2.numWrRetry                    11672                       # Number of times write queue was full causing retry
system.mem_ctrls2.totGap                 119688826500                       # Total gap between requests
system.mem_ctrls2.readPktSize::0                    0                       # Read request sizes (log2)
system.mem_ctrls2.readPktSize::1                    0                       # Read request sizes (log2)
system.mem_ctrls2.readPktSize::2                    0                       # Read request sizes (log2)
system.mem_ctrls2.readPktSize::3                    0                       # Read request sizes (log2)
system.mem_ctrls2.readPktSize::4                    0                       # Read request sizes (log2)
system.mem_ctrls2.readPktSize::5                    0                       # Read request sizes (log2)
system.mem_ctrls2.readPktSize::6               653596                       # Read request sizes (log2)
system.mem_ctrls2.writePktSize::0                   0                       # Write request sizes (log2)
system.mem_ctrls2.writePktSize::1                   0                       # Write request sizes (log2)
system.mem_ctrls2.writePktSize::2                   0                       # Write request sizes (log2)
system.mem_ctrls2.writePktSize::3                   0                       # Write request sizes (log2)
system.mem_ctrls2.writePktSize::4                   0                       # Write request sizes (log2)
system.mem_ctrls2.writePktSize::5                   0                       # Write request sizes (log2)
system.mem_ctrls2.writePktSize::6              304079                       # Write request sizes (log2)
system.mem_ctrls2.rdQLenPdf::0                 171375                       # What read queue length does an incoming req see
system.mem_ctrls2.rdQLenPdf::1                  22395                       # What read queue length does an incoming req see
system.mem_ctrls2.rdQLenPdf::2                  22975                       # What read queue length does an incoming req see
system.mem_ctrls2.rdQLenPdf::3                  23570                       # What read queue length does an incoming req see
system.mem_ctrls2.rdQLenPdf::4                  24119                       # What read queue length does an incoming req see
system.mem_ctrls2.rdQLenPdf::5                  24057                       # What read queue length does an incoming req see
system.mem_ctrls2.rdQLenPdf::6                  23563                       # What read queue length does an incoming req see
system.mem_ctrls2.rdQLenPdf::7                  22697                       # What read queue length does an incoming req see
system.mem_ctrls2.rdQLenPdf::8                  21610                       # What read queue length does an incoming req see
system.mem_ctrls2.rdQLenPdf::9                  20552                       # What read queue length does an incoming req see
system.mem_ctrls2.rdQLenPdf::10                 19036                       # What read queue length does an incoming req see
system.mem_ctrls2.rdQLenPdf::11                 17794                       # What read queue length does an incoming req see
system.mem_ctrls2.rdQLenPdf::12                 16639                       # What read queue length does an incoming req see
system.mem_ctrls2.rdQLenPdf::13                 15580                       # What read queue length does an incoming req see
system.mem_ctrls2.rdQLenPdf::14                 14460                       # What read queue length does an incoming req see
system.mem_ctrls2.rdQLenPdf::15                 13282                       # What read queue length does an incoming req see
system.mem_ctrls2.rdQLenPdf::16                 12202                       # What read queue length does an incoming req see
system.mem_ctrls2.rdQLenPdf::17                 11249                       # What read queue length does an incoming req see
system.mem_ctrls2.rdQLenPdf::18                 10224                       # What read queue length does an incoming req see
system.mem_ctrls2.rdQLenPdf::19                  9412                       # What read queue length does an incoming req see
system.mem_ctrls2.rdQLenPdf::20                  8610                       # What read queue length does an incoming req see
system.mem_ctrls2.rdQLenPdf::21                  8039                       # What read queue length does an incoming req see
system.mem_ctrls2.rdQLenPdf::22                  7541                       # What read queue length does an incoming req see
system.mem_ctrls2.rdQLenPdf::23                  7006                       # What read queue length does an incoming req see
system.mem_ctrls2.rdQLenPdf::24                  6650                       # What read queue length does an incoming req see
system.mem_ctrls2.rdQLenPdf::25                  6254                       # What read queue length does an incoming req see
system.mem_ctrls2.rdQLenPdf::26                  5872                       # What read queue length does an incoming req see
system.mem_ctrls2.rdQLenPdf::27                  5636                       # What read queue length does an incoming req see
system.mem_ctrls2.rdQLenPdf::28                  5298                       # What read queue length does an incoming req see
system.mem_ctrls2.rdQLenPdf::29                  5230                       # What read queue length does an incoming req see
system.mem_ctrls2.rdQLenPdf::30                  5166                       # What read queue length does an incoming req see
system.mem_ctrls2.rdQLenPdf::31                 65195                       # What read queue length does an incoming req see
system.mem_ctrls2.wrQLenPdf::0                  43394                       # What write queue length does an incoming req see
system.mem_ctrls2.wrQLenPdf::1                  48747                       # What write queue length does an incoming req see
system.mem_ctrls2.wrQLenPdf::2                  51303                       # What write queue length does an incoming req see
system.mem_ctrls2.wrQLenPdf::3                  52628                       # What write queue length does an incoming req see
system.mem_ctrls2.wrQLenPdf::4                  52894                       # What write queue length does an incoming req see
system.mem_ctrls2.wrQLenPdf::5                  17185                       # What write queue length does an incoming req see
system.mem_ctrls2.wrQLenPdf::6                  16044                       # What write queue length does an incoming req see
system.mem_ctrls2.wrQLenPdf::7                  21884                       # What write queue length does an incoming req see
system.mem_ctrls2.bytesPerActivate::samples       302091                       # Bytes accessed per row activation
system.mem_ctrls2.bytesPerActivate::mean   202.822064                       # Bytes accessed per row activation
system.mem_ctrls2.bytesPerActivate::gmean   155.462719                       # Bytes accessed per row activation
system.mem_ctrls2.bytesPerActivate::stdev   151.366851                       # Bytes accessed per row activation
system.mem_ctrls2.bytesPerActivate::0-127        98417     32.58%     32.58% # Bytes accessed per row activation
system.mem_ctrls2.bytesPerActivate::128-255        90981     30.12%     62.70% # Bytes accessed per row activation
system.mem_ctrls2.bytesPerActivate::256-383        73897     24.46%     87.16% # Bytes accessed per row activation
system.mem_ctrls2.bytesPerActivate::384-511        19271      6.38%     93.54% # Bytes accessed per row activation
system.mem_ctrls2.bytesPerActivate::512-639        14369      4.76%     98.29% # Bytes accessed per row activation
system.mem_ctrls2.bytesPerActivate::640-767         2732      0.90%     99.20% # Bytes accessed per row activation
system.mem_ctrls2.bytesPerActivate::768-895         1241      0.41%     99.61% # Bytes accessed per row activation
system.mem_ctrls2.bytesPerActivate::896-1023          794      0.26%     99.87% # Bytes accessed per row activation
system.mem_ctrls2.bytesPerActivate::1024-1151          389      0.13%    100.00% # Bytes accessed per row activation
system.mem_ctrls2.bytesPerActivate::total       302091                       # Bytes accessed per row activation
system.mem_ctrls2.rdPerTurnAround::samples        45283                       # Reads before turning the bus around for writes
system.mem_ctrls2.rdPerTurnAround::mean     14.426694                       # Reads before turning the bus around for writes
system.mem_ctrls2.rdPerTurnAround::stdev    27.640905                       # Reads before turning the bus around for writes
system.mem_ctrls2.rdPerTurnAround::0-127        45002     99.38%     99.38% # Reads before turning the bus around for writes
system.mem_ctrls2.rdPerTurnAround::128-255          212      0.47%     99.85% # Reads before turning the bus around for writes
system.mem_ctrls2.rdPerTurnAround::256-383           54      0.12%     99.97% # Reads before turning the bus around for writes
system.mem_ctrls2.rdPerTurnAround::384-511            8      0.02%     99.98% # Reads before turning the bus around for writes
system.mem_ctrls2.rdPerTurnAround::512-639            3      0.01%     99.99% # Reads before turning the bus around for writes
system.mem_ctrls2.rdPerTurnAround::640-767            1      0.00%     99.99% # Reads before turning the bus around for writes
system.mem_ctrls2.rdPerTurnAround::768-895            1      0.00%    100.00% # Reads before turning the bus around for writes
system.mem_ctrls2.rdPerTurnAround::1152-1279            1      0.00%    100.00% # Reads before turning the bus around for writes
system.mem_ctrls2.rdPerTurnAround::2816-2943            1      0.00%    100.00% # Reads before turning the bus around for writes
system.mem_ctrls2.rdPerTurnAround::total        45283                       # Reads before turning the bus around for writes
system.mem_ctrls2.wrPerTurnAround::samples        45283                       # Writes before turning the bus around for reads
system.mem_ctrls2.wrPerTurnAround::mean      6.715037                       # Writes before turning the bus around for reads
system.mem_ctrls2.wrPerTurnAround::gmean     6.196510                       # Writes before turning the bus around for reads
system.mem_ctrls2.wrPerTurnAround::stdev     3.191629                       # Writes before turning the bus around for reads
system.mem_ctrls2.wrPerTurnAround::4-7          34689     76.60%     76.60% # Writes before turning the bus around for reads
system.mem_ctrls2.wrPerTurnAround::8-11          5482     12.11%     88.71% # Writes before turning the bus around for reads
system.mem_ctrls2.wrPerTurnAround::12-15         2761      6.10%     94.81% # Writes before turning the bus around for reads
system.mem_ctrls2.wrPerTurnAround::16-19         2351      5.19%    100.00% # Writes before turning the bus around for reads
system.mem_ctrls2.wrPerTurnAround::total        45283                       # Writes before turning the bus around for reads
system.mem_ctrls2.totQLat                 73242587948                       # Total ticks spent queuing
system.mem_ctrls2.totMemAccLat            85491737948                       # Total ticks spent from burst creation until serviced by the DRAM
system.mem_ctrls2.totBusLat                3266440000                       # Total ticks spent in databus transfers
system.mem_ctrls2.avgQLat                   112113.78                       # Average queueing delay per DRAM burst
system.mem_ctrls2.avgBusLat                   5000.00                       # Average bus latency per DRAM burst
system.mem_ctrls2.avgMemAccLat              130863.78                       # Average memory access latency per DRAM burst
system.mem_ctrls2.avgRdBW                      349.33                       # Average DRAM read bandwidth in MiByte/s
system.mem_ctrls2.avgWrBW                      162.60                       # Average achieved write bandwidth in MiByte/s
system.mem_ctrls2.avgRdBWSys                   349.49                       # Average system read bandwidth in MiByte/s
system.mem_ctrls2.avgWrBWSys                   162.60                       # Average system write bandwidth in MiByte/s
system.mem_ctrls2.peakBW                     12800.00                       # Theoretical peak bandwidth in MiByte/s
system.mem_ctrls2.busUtil                        4.00                       # Data bus utilization in percentage
system.mem_ctrls2.busUtilRead                    2.73                       # Data bus utilization in percentage for reads
system.mem_ctrls2.busUtilWrite                   1.27                       # Data bus utilization in percentage for writes
system.mem_ctrls2.avgRdQLen                      1.74                       # Average read queue length when enqueuing
system.mem_ctrls2.avgWrQLen                      3.03                       # Average write queue length when enqueuing
system.mem_ctrls2.readRowHits                  485028                       # Number of row buffer hits during reads
system.mem_ctrls2.writeRowHits                 170239                       # Number of row buffer hits during writes
system.mem_ctrls2.readRowHitRate                74.24                       # Row buffer hit rate for reads
system.mem_ctrls2.writeRowHitRate               55.99                       # Row buffer hit rate for writes
system.mem_ctrls2.avgGap                    124978.54                       # Average gap between requests
system.mem_ctrls2.pageHitRate                   68.44                       # Row buffer hit rate, read and write combined
system.mem_ctrls2.memoryStateTime::IDLE   20824848750                       # Time in different power states
system.mem_ctrls2.memoryStateTime::REF     3996460000                       # Time in different power states
system.mem_ctrls2.memoryStateTime::PRE_PDN            0                       # Time in different power states
system.mem_ctrls2.memoryStateTime::ACT    94861481500                       # Time in different power states
system.mem_ctrls2.memoryStateTime::ACT_PDN            0                       # Time in different power states
system.mem_ctrls2.actEnergy::0             1148961240                       # Energy for activate commands per rank (pJ)
system.mem_ctrls2.actEnergy::1             1134703080                       # Energy for activate commands per rank (pJ)
system.mem_ctrls2.preEnergy::0              626913375                       # Energy for precharge commands per rank (pJ)
system.mem_ctrls2.preEnergy::1              619133625                       # Energy for precharge commands per rank (pJ)
system.mem_ctrls2.readEnergy::0            2554500000                       # Energy for read commands per rank (pJ)
system.mem_ctrls2.readEnergy::1            2540928000                       # Energy for read commands per rank (pJ)
system.mem_ctrls2.writeEnergy::0            987318720                       # Energy for write commands per rank (pJ)
system.mem_ctrls2.writeEnergy::1            983003040                       # Energy for write commands per rank (pJ)
system.mem_ctrls2.refreshEnergy::0         7817075760                       # Energy for refresh commands per rank (pJ)
system.mem_ctrls2.refreshEnergy::1         7817075760                       # Energy for refresh commands per rank (pJ)
system.mem_ctrls2.actBackEnergy::0        48390131475                       # Energy for active background per rank (pJ)
system.mem_ctrls2.actBackEnergy::1        47879507520                       # Energy for active background per rank (pJ)
system.mem_ctrls2.preBackEnergy::0        29362182000                       # Energy for precharge background per rank (pJ)
system.mem_ctrls2.preBackEnergy::1        29810097750                       # Energy for precharge background per rank (pJ)
system.mem_ctrls2.totalEnergy::0          90887082570                       # Total energy per rank (pJ)
system.mem_ctrls2.totalEnergy::1          90784448775                       # Total energy per rank (pJ)
system.mem_ctrls2.averagePower::0          759.399852                       # Core power per rank (mW)
system.mem_ctrls2.averagePower::1          758.542303                       # Core power per rank (mW)
system.mem_ctrls3.bytes_read::ruby.dir_cntrl3     41856704                       # Number of bytes read from this memory
system.mem_ctrls3.bytes_read::total          41856704                       # Number of bytes read from this memory
system.mem_ctrls3.bytes_written::ruby.dir_cntrl3     19465536                       # Number of bytes written to this memory
system.mem_ctrls3.bytes_written::total       19465536                       # Number of bytes written to this memory
system.mem_ctrls3.num_reads::ruby.dir_cntrl3       654011                       # Number of read requests responded to by this memory
system.mem_ctrls3.num_reads::total             654011                       # Number of read requests responded to by this memory
system.mem_ctrls3.num_writes::ruby.dir_cntrl3       304149                       # Number of write requests responded to by this memory
system.mem_ctrls3.num_writes::total            304149                       # Number of write requests responded to by this memory
system.mem_ctrls3.bw_read::ruby.dir_cntrl3    349712562                       # Total read bandwidth from this memory (bytes/s)
system.mem_ctrls3.bw_read::total            349712562                       # Total read bandwidth from this memory (bytes/s)
system.mem_ctrls3.bw_write::ruby.dir_cntrl3    162634460                       # Write bandwidth from this memory (bytes/s)
system.mem_ctrls3.bw_write::total           162634460                       # Write bandwidth from this memory (bytes/s)
system.mem_ctrls3.bw_total::ruby.dir_cntrl3    512347022                       # Total bandwidth to/from this memory (bytes/s)
system.mem_ctrls3.bw_total::total           512347022                       # Total bandwidth to/from this memory (bytes/s)
system.mem_ctrls3.readReqs                     654011                       # Number of read requests accepted
system.mem_ctrls3.writeReqs                    304149                       # Number of write requests accepted
system.mem_ctrls3.readBursts                   654011                       # Number of DRAM read bursts, including those serviced by the write queue
system.mem_ctrls3.writeBursts                  304149                       # Number of DRAM write bursts, including those merged in the write queue
system.mem_ctrls3.bytesReadDRAM              41836928                       # Total number of bytes read from DRAM
system.mem_ctrls3.bytesReadWrQ                  19776                       # Total number of bytes read from write queue
system.mem_ctrls3.bytesWritten               19465536                       # Total number of bytes written to DRAM
system.mem_ctrls3.bytesReadSys               41856704                       # Total read bytes from the system interface side
system.mem_ctrls3.bytesWrittenSys            19465536                       # Total written bytes from the system interface side
system.mem_ctrls3.servicedByWrQ                   309                       # Number of DRAM read bursts serviced by the write queue
system.mem_ctrls3.mergedWrBursts                    0                       # Number of DRAM write bursts merged with an existing one
system.mem_ctrls3.neitherReadNorWriteReqs            0                       # Number of requests that are neither read nor write
system.mem_ctrls3.perBankRdBursts::0            40852                       # Per bank write bursts
system.mem_ctrls3.perBankRdBursts::1            40794                       # Per bank write bursts
system.mem_ctrls3.perBankRdBursts::2            40415                       # Per bank write bursts
system.mem_ctrls3.perBankRdBursts::3            40656                       # Per bank write bursts
system.mem_ctrls3.perBankRdBursts::4            40940                       # Per bank write bursts
system.mem_ctrls3.perBankRdBursts::5            41021                       # Per bank write bursts
system.mem_ctrls3.perBankRdBursts::6            41760                       # Per bank write bursts
system.mem_ctrls3.perBankRdBursts::7            41210                       # Per bank write bursts
system.mem_ctrls3.perBankRdBursts::8            40509                       # Per bank write bursts
system.mem_ctrls3.perBankRdBursts::9            40461                       # Per bank write bursts
system.mem_ctrls3.perBankRdBursts::10           40478                       # Per bank write bursts
system.mem_ctrls3.perBankRdBursts::11           40692                       # Per bank write bursts
system.mem_ctrls3.perBankRdBursts::12           40815                       # Per bank write bursts
system.mem_ctrls3.perBankRdBursts::13           40703                       # Per bank write bursts
system.mem_ctrls3.perBankRdBursts::14           41242                       # Per bank write bursts
system.mem_ctrls3.perBankRdBursts::15           41154                       # Per bank write bursts
system.mem_ctrls3.perBankWrBursts::0            19024                       # Per bank write bursts
system.mem_ctrls3.perBankWrBursts::1            18910                       # Per bank write bursts
system.mem_ctrls3.perBankWrBursts::2            18937                       # Per bank write bursts
system.mem_ctrls3.perBankWrBursts::3            18939                       # Per bank write bursts
system.mem_ctrls3.perBankWrBursts::4            19137                       # Per bank write bursts
system.mem_ctrls3.perBankWrBursts::5            19101                       # Per bank write bursts
system.mem_ctrls3.perBankWrBursts::6            19157                       # Per bank write bursts
system.mem_ctrls3.perBankWrBursts::7            19234                       # Per bank write bursts
system.mem_ctrls3.perBankWrBursts::8            18944                       # Per bank write bursts
system.mem_ctrls3.perBankWrBursts::9            18984                       # Per bank write bursts
system.mem_ctrls3.perBankWrBursts::10           18800                       # Per bank write bursts
system.mem_ctrls3.perBankWrBursts::11           18875                       # Per bank write bursts
system.mem_ctrls3.perBankWrBursts::12           19062                       # Per bank write bursts
system.mem_ctrls3.perBankWrBursts::13           18941                       # Per bank write bursts
system.mem_ctrls3.perBankWrBursts::14           19076                       # Per bank write bursts
system.mem_ctrls3.perBankWrBursts::15           19028                       # Per bank write bursts
system.mem_ctrls3.numRdRetry                    57425                       # Number of times read queue was full causing retry
system.mem_ctrls3.numWrRetry                    11561                       # Number of times write queue was full causing retry
system.mem_ctrls3.totGap                 119687860000                       # Total gap between requests
system.mem_ctrls3.readPktSize::0                    0                       # Read request sizes (log2)
system.mem_ctrls3.readPktSize::1                    0                       # Read request sizes (log2)
system.mem_ctrls3.readPktSize::2                    0                       # Read request sizes (log2)
system.mem_ctrls3.readPktSize::3                    0                       # Read request sizes (log2)
system.mem_ctrls3.readPktSize::4                    0                       # Read request sizes (log2)
system.mem_ctrls3.readPktSize::5                    0                       # Read request sizes (log2)
system.mem_ctrls3.readPktSize::6               654011                       # Read request sizes (log2)
system.mem_ctrls3.writePktSize::0                   0                       # Write request sizes (log2)
system.mem_ctrls3.writePktSize::1                   0                       # Write request sizes (log2)
system.mem_ctrls3.writePktSize::2                   0                       # Write request sizes (log2)
system.mem_ctrls3.writePktSize::3                   0                       # Write request sizes (log2)
system.mem_ctrls3.writePktSize::4                   0                       # Write request sizes (log2)
system.mem_ctrls3.writePktSize::5                   0                       # Write request sizes (log2)
system.mem_ctrls3.writePktSize::6              304149                       # Write request sizes (log2)
system.mem_ctrls3.rdQLenPdf::0                 171205                       # What read queue length does an incoming req see
system.mem_ctrls3.rdQLenPdf::1                  22830                       # What read queue length does an incoming req see
system.mem_ctrls3.rdQLenPdf::2                  23343                       # What read queue length does an incoming req see
system.mem_ctrls3.rdQLenPdf::3                  23908                       # What read queue length does an incoming req see
system.mem_ctrls3.rdQLenPdf::4                  23972                       # What read queue length does an incoming req see
system.mem_ctrls3.rdQLenPdf::5                  23623                       # What read queue length does an incoming req see
system.mem_ctrls3.rdQLenPdf::6                  23307                       # What read queue length does an incoming req see
system.mem_ctrls3.rdQLenPdf::7                  22573                       # What read queue length does an incoming req see
system.mem_ctrls3.rdQLenPdf::8                  21576                       # What read queue length does an incoming req see
system.mem_ctrls3.rdQLenPdf::9                  20468                       # What read queue length does an incoming req see
system.mem_ctrls3.rdQLenPdf::10                 19166                       # What read queue length does an incoming req see
[...]
system.ruby.L2Cache_Controller.MT_MB.L1_PUTX_old::total           15                      
system.ruby.L2Cache_Controller.MT_MB.L2_Replacement_clean |           0      0.00%      0.00% |           0      0.00%      0.00% |           1    100.00%    100.00% |           0      0.00%    100.00% |           0      0.00%    100.00% |           0      0.00%    100.00% |           0      0.00%    100.00% |           0      0.00%    100.00% |           0      0.00%    100.00% |           0      0.00%    100.00% |           0      0.00%    100.00% |           0      0.00%    100.00% |           0      0.00%    100.00% |           0      0.00%    100.00% |           0      0.00%    100.00% |           0      0.00%    100.00% |           0      0.00%    100.00% |           0      0.00%    100.00% |           0      0.00%    100.00% |           0      0.00%    100.00% |           0      0.00%    100.00% |           0      0.00%    100.00% |           0      0.00%    100.00% |           0      0.00%    100.00% |           0      0.00%    100.00% |           0      0.00%    100.00% |           0      0.00%    100.00% |           0      0.00%    100.00% |           0      0.00%    100.00% |           0      0.00%    100.00% |           0      0.00%    100.00% |           0      0.00%    100.00%
system.ruby.L2Cache_Controller.MT_MB.L2_Replacement_clean::total            1                      
system.ruby.L2Cache_Controller.MT_MB.Exclusive_Unblock |      218427      5.21%      5.21% |      128465      3.07%      8.28% |      127242      3.04%     11.32% |      129401      3.09%     14.40% |      127432      3.04%     17.44% |      126755      3.03%     20.47% |      126914      3.03%     23.50% |      126316      3.01%     26.51% |      126614      3.02%     29.53% |      127414      3.04%     32.58% |      129121      3.08%     35.66% |      128068      3.06%     38.71% |      126775      3.03%     41.74% |      127153      3.03%     44.77% |      125656      3.00%     47.77% |      125485      2.99%     50.77% |      126605      3.02%     53.79% |      126464      3.02%     56.81% |      126598      3.02%     59.83% |      126859      3.03%     62.85% |      126878      3.03%     65.88% |      141351      3.37%     69.26% |      134961      3.22%     72.48% |      125590      3.00%     75.47% |      126226      3.01%     78.49% |      126625      3.02%     81.51% |      126264      3.01%     84.52% |      126186      3.01%     87.53% |      127528      3.04%     90.58% |      126777      3.03%     93.60% |      130420      3.11%     96.71% |      137664      3.29%    100.00%
system.ruby.L2Cache_Controller.MT_MB.Exclusive_Unblock::total      4190234                      
system.ruby.L2Cache_Controller.MT_IIB.L1_GETS |           0      0.00%      0.00% |           0      0.00%      0.00% |           0      0.00%      0.00% |           0      0.00%      0.00% |           3     23.08%     23.08% |           0      0.00%     23.08% |           3     23.08%     46.15% |           0      0.00%     46.15% |           0      0.00%     46.15% |           0      0.00%     46.15% |           2     15.38%     61.54% |           0      0.00%     61.54% |           0      0.00%     61.54% |           0      0.00%     61.54% |           1      7.69%     69.23% |           0      0.00%     69.23% |           0      0.00%     69.23% |           0      0.00%     69.23% |           1      7.69%     76.92% |           0      0.00%     76.92% |           2     15.38%     92.31% |           0      0.00%     92.31% |           1      7.69%    100.00% |           0      0.00%    100.00% |           0      0.00%    100.00% |           0      0.00%    100.00% |           0      0.00%    100.00% |           0      0.00%    100.00% |           0      0.00%    100.00% |           0      0.00%    100.00% |           0      0.00%    100.00% |           0      0.00%    100.00%
system.ruby.L2Cache_Controller.MT_IIB.L1_GETS::total           13                      
system.ruby.L2Cache_Controller.MT_IIB.L1_PUTX |          24      2.45%      2.45% |          20      2.04%      4.49% |          25      2.55%      7.04% |          26      2.65%      9.69% |          28      2.86%     12.55% |          30      3.06%     15.61% |          22      2.24%     17.86% |          20      2.04%     19.90% |          27      2.76%     22.65% |          18      1.84%     24.49% |          27      2.76%     27.24% |          33      3.37%     30.61% |          37      3.78%     34.39% |          43      4.39%     38.78% |          36      3.67%     42.45% |          23      2.35%     44.80% |          26      2.65%     47.45% |          26      2.65%     50.10% |          38      3.88%     53.98% |          31      3.16%     57.14% |          37      3.78%     60.92% |          40      4.08%     65.00% |          48      4.90%     69.90% |          29      2.96%     72.86% |          43      4.39%     77.24% |          38      3.88%     81.12% |          49      5.00%     86.12% |          48      4.90%     91.02% |          19      1.94%     92.96% |          23      2.35%     95.31% |          23      2.35%     97.65% |          23      2.35%    100.00%
system.ruby.L2Cache_Controller.MT_IIB.L1_PUTX::total          980                      
system.ruby.L2Cache_Controller.MT_IIB.WB_Data |           0      0.00%      0.00% |           0      0.00%      0.00% |           0      0.00%      0.00% |           0      0.00%      0.00% |           0      0.00%      0.00% |           0      0.00%      0.00% |           0      0.00%      0.00% |           0      0.00%      0.00% |           0      0.00%      0.00% |           0      0.00%      0.00% |           0      0.00%      0.00% |           0      0.00%      0.00% |           0      0.00%      0.00% |           0      0.00%      0.00% |           0      0.00%      0.00% |           0      0.00%      0.00% |           0      0.00%      0.00% |           0      0.00%      0.00% |           0      0.00%      0.00% |           0      0.00%      0.00% |           0      0.00%      0.00% |           2     40.00%     40.00% |           0      0.00%     40.00% |           0      0.00%     40.00% |           0      0.00%     40.00% |           0      0.00%     40.00% |           1     20.00%     60.00% |           0      0.00%     60.00% |           0      0.00%     60.00% |           0      0.00%     60.00% |           0      0.00%     60.00% |           2     40.00%    100.00%
system.ruby.L2Cache_Controller.MT_IIB.WB_Data::total            5                      
system.ruby.L2Cache_Controller.MT_IIB.WB_Data_clean |        1469      3.16%      3.16% |        1439      3.10%      6.26% |        1346      2.90%      9.15% |        1358      2.92%     12.07% |        1416      3.05%     15.12% |        1360      2.93%     18.05% |        1248      2.68%     20.73% |        1295      2.79%     23.52% |        1311      2.82%     26.34% |        1377      2.96%     29.30% |        1412      3.04%     32.34% |        1448      3.12%     35.45% |        1509      3.25%     38.70% |        1514      3.26%     41.96% |        1437      3.09%     45.05% |        1426      3.07%     48.12% |        1459      3.14%     51.25% |        1504      3.24%     54.49% |        1589      3.42%     57.91% |        1631      3.51%     61.42% |        1479      3.18%     64.60% |        1548      3.33%     67.93% |        1576      3.39%     71.32% |        1503      3.23%     74.55% |        1522      3.27%     77.83% |        1484      3.19%     81.02% |        1502      3.23%     84.25% |        1537      3.31%     87.56% |        1489      3.20%     90.76% |        1448      3.12%     93.88% |        1426      3.07%     96.95% |        1420      3.05%    100.00%
system.ruby.L2Cache_Controller.MT_IIB.WB_Data_clean::total        46482                      
system.ruby.L2Cache_Controller.MT_IIB.Unblock |          79      2.34%      2.34% |          60      1.78%      4.12% |         117      3.47%      7.59% |          95      2.82%     10.40% |          76      2.25%     12.66% |          75      2.22%     14.88% |         127      3.76%     18.64% |         108      3.20%     21.84% |         171      5.07%     26.91% |         114      3.38%     30.29% |         134      3.97%     34.26% |          91      2.70%     36.96% |          72      2.13%     39.09% |          70      2.07%     41.17% |         113      3.35%     44.52% |         109      3.23%     47.75% |         114      3.38%     51.13% |          95      2.82%     53.94% |          89      2.64%     56.58% |          74      2.19%     58.77% |         203      6.02%     64.79% |         120      3.56%     68.35% |         122      3.62%     71.96% |          99      2.93%     74.90% |         106      3.14%     78.04% |         119      3.53%     81.56% |         103      3.05%     84.62% |          84      2.49%     87.11% |         136      4.03%     91.14% |          86      2.55%     93.69% |         115      3.41%     97.10% |          98      2.90%    100.00%
system.ruby.L2Cache_Controller.MT_IIB.Unblock::total         3374                      
system.ruby.L2Cache_Controller.MT_IB.L1_PUTX |           0      0.00%      0.00% |           0      0.00%      0.00% |           0      0.00%      0.00% |           0      0.00%      0.00% |           0      0.00%      0.00% |           0      0.00%      0.00% |           0      0.00%      0.00% |           1     33.33%     33.33% |           0      0.00%     33.33% |           0      0.00%     33.33% |           0      0.00%     33.33% |           0      0.00%     33.33% |           0      0.00%     33.33% |           0      0.00%     33.33% |           0      0.00%     33.33% |           0      0.00%     33.33% |           0      0.00%     33.33% |           0      0.00%     33.33% |           0      0.00%     33.33% |           0      0.00%     33.33% |           0      0.00%     33.33% |           0      0.00%     33.33% |           0      0.00%     33.33% |           0      0.00%     33.33% |           0      0.00%     33.33% |           0      0.00%     33.33% |           0      0.00%     33.33% |           1     33.33%     66.67% |           1     33.33%    100.00% |           0      0.00%    100.00% |           0      0.00%    100.00% |           0      0.00%    100.00%
system.ruby.L2Cache_Controller.MT_IB.L1_PUTX::total            3                      
system.ruby.L2Cache_Controller.MT_IB.WB_Data_clean |          79      2.34%      2.34% |          60      1.78%      4.12% |         117      3.47%      7.59% |          95      2.82%     10.40% |          76      2.25%     12.66% |          75      2.22%     14.88% |         127      3.76%     18.64% |         108      3.20%     21.84% |         171      5.07%     26.91% |         114      3.38%     30.29% |         134      3.97%     34.26% |          91      2.70%     36.96% |          72      2.13%     39.09% |          70      2.07%     41.17% |         113      3.35%     44.52% |         109      3.23%     47.75% |         114      3.38%     51.13% |          95      2.82%     53.94% |          89      2.64%     56.58% |          74      2.19%     58.77% |         203      6.02%     64.79% |         120      3.56%     68.35% |         122      3.62%     71.96% |          99      2.93%     74.90% |         106      3.14%     78.04% |         119      3.53%     81.56% |         103      3.05%     84.62% |          84      2.49%     87.11% |         136      4.03%     91.14% |          86      2.55%     93.69% |         115      3.41%     97.10% |          98      2.90%    100.00%
system.ruby.L2Cache_Controller.MT_IB.WB_Data_clean::total         3374                      
system.ruby.L2Cache_Controller.MT_SB.L1_PUTX |           0      0.00%      0.00% |           3      4.92%      4.92% |           2      3.28%      8.20% |           0      0.00%      8.20% |           2      3.28%     11.48% |           3      4.92%     16.39% |           3      4.92%     21.31% |           2      3.28%     24.59% |           0      0.00%     24.59% |           2      3.28%     27.87% |           2      3.28%     31.15% |           2      3.28%     34.43% |           4      6.56%     40.98% |           2      3.28%     44.26% |           1      1.64%     45.90% |           2      3.28%     49.18% |           1      1.64%     50.82% |           2      3.28%     54.10% |           2      3.28%     57.38% |           4      6.56%     63.93% |           2      3.28%     67.21% |           3      4.92%     72.13% |           1      1.64%     73.77% |           2      3.28%     77.05% |           1      1.64%     78.69% |           2      3.28%     81.97% |           4      6.56%     88.52% |           1      1.64%     90.16% |           2      3.28%     93.44% |           1      1.64%     95.08% |           1      1.64%     96.72% |           2      3.28%    100.00%
system.ruby.L2Cache_Controller.MT_SB.L1_PUTX::total           61                      
system.ruby.L2Cache_Controller.MT_SB.Unblock |        1469      3.16%      3.16% |        1439      3.10%      6.26% |        1346      2.90%      9.15% |        1358      2.92%     12.07% |        1416      3.05%     15.12% |        1360      2.93%     18.04% |        1248      2.68%     20.73% |        1295      2.79%     23.51% |        1311      2.82%     26.33% |        1377      2.96%     29.30% |        1412      3.04%     32.33% |        1448      3.11%     35.45% |        1509      3.25%     38.69% |        1514      3.26%     41.95% |        1437      3.09%     45.04% |        1426      3.07%     48.11% |        1459      3.14%     51.25% |        1504      3.24%     54.48% |        1589      3.42%     57.90% |        1631      3.51%     61.41% |        1479      3.18%     64.59% |        1550      3.33%     67.93% |        1576      3.39%     71.32% |        1503      3.23%     74.55% |        1522      3.27%     77.82% |        1484      3.19%     81.02% |        1503      3.23%     84.25% |        1537      3.31%     87.56% |        1489      3.20%     90.76% |        1448      3.11%     93.87% |        1426      3.07%     96.94% |        1422      3.06%    100.00%
system.ruby.L2Cache_Controller.MT_SB.Unblock::total        46487                      
system.ruby.SimicsNetworkPortInterface_Controller.MessageSend |      462239     19.42%     19.42% |     1190223     50.00%     69.42% |       91188      3.83%     73.25% |       96700      4.06%     77.31% |       88591      3.72%     81.03% |       94254      3.96%     84.99% |       91120      3.83%     88.82% |       98672      4.15%     92.97% |       82024      3.45%     96.41% |       85435      3.59%    100.00% |           0      0.00%    100.00% |           0      0.00%    100.00% |           0      0.00%    100.00% |           0      0.00%    100.00% |           0      0.00%    100.00% |           0      0.00%    100.00% |           0      0.00%    100.00% |           0      0.00%    100.00% |           0      0.00%    100.00% |           0      0.00%    100.00% |           0      0.00%    100.00% |           0      0.00%    100.00% |           0      0.00%    100.00% |           0      0.00%    100.00% |           0      0.00%    100.00% |           0      0.00%    100.00% |           0      0.00%    100.00% |           0      0.00%    100.00% |           0      0.00%    100.00% |           0      0.00%    100.00% |           0      0.00%    100.00% |           0      0.00%    100.00%
system.ruby.SimicsNetworkPortInterface_Controller.MessageSend::total      2380446                      
system.ruby.SimicsNetworkPortInterface_Controller.MessageRecv |      462239     19.42%     19.42% |     1190223     50.00%     69.42% |       91188      3.83%     73.25% |       96700      4.06%     77.31% |       88591      3.72%     81.03% |       94254      3.96%     84.99% |       91120      3.83%     88.82% |       98672      4.15%     92.97% |       82024      3.45%     96.41% |       85435      3.59%    100.00% |           0      0.00%    100.00% |           0      0.00%    100.00% |           0      0.00%    100.00% |           0      0.00%    100.00% |           0      0.00%    100.00% |           0      0.00%    100.00% |           0      0.00%    100.00% |           0      0.00%    100.00% |           0      0.00%    100.00% |           0      0.00%    100.00% |           0      0.00%    100.00% |           0      0.00%    100.00% |           0      0.00%    100.00% |           0      0.00%    100.00% |           0      0.00%    100.00% |           0      0.00%    100.00% |           0      0.00%    100.00% |           0      0.00%    100.00% |           0      0.00%    100.00% |           0      0.00%    100.00% |           0      0.00%    100.00% |           0      0.00%    100.00%
system.ruby.SimicsNetworkPortInterface_Controller.MessageRecv::total      2380446                      
system.ruby.SimicsNetworkPortInterface_Controller.A.MessageSend |      462239     19.42%     19.42% |     1190223     50.00%     69.42% |       91188      3.83%     73.25% |       96700      4.06%     77.31% |       88591      3.72%     81.03% |       94254      3.96%     84.99% |       91120      3.83%     88.82% |       98672      4.15%     92.97% |       82024      3.45%     96.41% |       85435      3.59%    100.00% |           0      0.00%    100.00% |           0      0.00%    100.00% |           0      0.00%    100.00% |           0      0.00%    100.00% |           0      0.00%    100.00% |           0      0.00%    100.00% |           0      0.00%    100.00% |           0      0.00%    100.00% |           0      0.00%    100.00% |           0      0.00%    100.00% |           0      0.00%    100.00% |           0      0.00%    100.00% |           0      0.00%    100.00% |           0      0.00%    100.00% |           0      0.00%    100.00% |           0      0.00%    100.00% |           0      0.00%    100.00% |           0      0.00%    100.00% |           0      0.00%    100.00% |           0      0.00%    100.00% |           0      0.00%    100.00% |           0      0.00%    100.00%
system.ruby.SimicsNetworkPortInterface_Controller.A.MessageSend::total      2380446                      
system.ruby.SimicsNetworkPortInterface_Controller.A.MessageRecv |      462239     19.42%     19.42% |     1190223     50.00%     69.42% |       91188      3.83%     73.25% |       96700      4.06%     77.31% |       88591      3.72%     81.03% |       94254      3.96%     84.99% |       91120      3.83%     88.82% |       98672      4.15%     92.97% |       82024      3.45%     96.41% |       85435      3.59%    100.00% |           0      0.00%    100.00% |           0      0.00%    100.00% |           0      0.00%    100.00% |           0      0.00%    100.00% |           0      0.00%    100.00% |           0      0.00%    100.00% |           0      0.00%    100.00% |           0      0.00%    100.00% |           0      0.00%    100.00% |           0      0.00%    100.00% |           0      0.00%    100.00% |           0      0.00%    100.00% |           0      0.00%    100.00% |           0      0.00%    100.00% |           0      0.00%    100.00% |           0      0.00%    100.00% |           0      0.00%    100.00% |           0      0.00%    100.00% |           0      0.00%    100.00% |           0      0.00%    100.00% |           0      0.00%    100.00% |           0      0.00%    100.00%
system.ruby.SimicsNetworkPortInterface_Controller.A.MessageRecv::total      2380446                      
system.switch_cpus.kern.inst.arm                    0                       # number of arm instructions executed
system.switch_cpus.kern.inst.quiesce                0                       # number of quiesce instructions executed

---------- End Simulation Statistics   ----------
