
---------- Begin Simulation Statistics ----------
sim_seconds                                  0.037980                       # Number of seconds simulated
sim_ticks                                 37980383000                       # Number of ticks simulated
final_tick                               5214148461500                       # Number of ticks from beginning of simulation (restored from checkpoints and never reset)
sim_freq                                 1000000000000                       # Frequency of simulated ticks
host_inst_rate                                  31890                       # Simulator instruction rate (inst/s)
host_op_rate                                    57375                       # Simulator op (including micro ops) rate (op/s)
host_tick_rate                               49980176                       # Simulator tick rate (ticks/s)
host_mem_usage                                4761048                       # Number of bytes of host memory used
host_seconds                                   759.91                       # Real time elapsed on the host
sim_insts                                    24233452                       # Number of instructions simulated
sim_ops                                      43599704                       # Number of ops (including micro ops) simulated
system.voltage_domain.voltage                       1                       # Voltage in Volts
system.clk_domain.clock                           500                       # Clock period in ticks
system.mem_ctrls0.bytes_read::ruby.dir_cntrl0      4968832                       # Number of bytes read from this memory
system.mem_ctrls0.bytes_read::total           4968832                       # Number of bytes read from this memory
system.mem_ctrls0.bytes_written::ruby.dir_cntrl0      3964864                       # Number of bytes written to this memory
system.mem_ctrls0.bytes_written::total        3964864                       # Number of bytes written to this memory
system.mem_ctrls0.num_reads::ruby.dir_cntrl0        77638                       # Number of read requests responded to by this memory
system.mem_ctrls0.num_reads::total              77638                       # Number of read requests responded to by this memory
system.mem_ctrls0.num_writes::ruby.dir_cntrl0        61951                       # Number of write requests responded to by this memory
system.mem_ctrls0.num_writes::total             61951                       # Number of write requests responded to by this memory
system.mem_ctrls0.bw_read::ruby.dir_cntrl0    130826274                       # Total read bandwidth from this memory (bytes/s)
system.mem_ctrls0.bw_read::total            130826274                       # Total read bandwidth from this memory (bytes/s)
system.mem_ctrls0.bw_write::ruby.dir_cntrl0    104392418                       # Write bandwidth from this memory (bytes/s)
system.mem_ctrls0.bw_write::total           104392418                       # Write bandwidth from this memory (bytes/s)
system.mem_ctrls0.bw_total::ruby.dir_cntrl0    235218692                       # Total bandwidth to/from this memory (bytes/s)
system.mem_ctrls0.bw_total::total           235218692                       # Total bandwidth to/from this memory (bytes/s)
system.mem_ctrls0.readReqs                      77638                       # Number of read requests accepted
system.mem_ctrls0.writeReqs                     61951                       # Number of write requests accepted
system.mem_ctrls0.readBursts                    77638                       # Number of DRAM read bursts, including those serviced by the write queue
system.mem_ctrls0.writeBursts                   61951                       # Number of DRAM write bursts, including those merged in the write queue
system.mem_ctrls0.bytesReadDRAM               4967424                       # Total number of bytes read from DRAM
system.mem_ctrls0.bytesReadWrQ                   1408                       # Total number of bytes read from write queue
system.mem_ctrls0.bytesWritten                3964800                       # Total number of bytes written to DRAM
system.mem_ctrls0.bytesReadSys                4968832                       # Total read bytes from the system interface side
system.mem_ctrls0.bytesWrittenSys             3964864                       # Total written bytes from the system interface side
system.mem_ctrls0.servicedByWrQ                    22                       # Number of DRAM read bursts serviced by the write queue
system.mem_ctrls0.mergedWrBursts                    0                       # Number of DRAM write bursts merged with an existing one
system.mem_ctrls0.neitherReadNorWriteReqs            0                       # Number of requests that are neither read nor write
system.mem_ctrls0.perBankRdBursts::0             4396                       # Per bank write bursts
system.mem_ctrls0.perBankRdBursts::1             4841                       # Per bank write bursts
system.mem_ctrls0.perBankRdBursts::2             4544                       # Per bank write bursts
system.mem_ctrls0.perBankRdBursts::3             4967                       # Per bank write bursts
system.mem_ctrls0.perBankRdBursts::4             4853                       # Per bank write bursts
system.mem_ctrls0.perBankRdBursts::5             5354                       # Per bank write bursts
system.mem_ctrls0.perBankRdBursts::6             4949                       # Per bank write bursts
system.mem_ctrls0.perBankRdBursts::7             5220                       # Per bank write bursts
system.mem_ctrls0.perBankRdBursts::8             5043                       # Per bank write bursts
system.mem_ctrls0.perBankRdBursts::9             5204                       # Per bank write bursts
system.mem_ctrls0.perBankRdBursts::10            4616                       # Per bank write bursts
system.mem_ctrls0.perBankRdBursts::11            4794                       # Per bank write bursts
system.mem_ctrls0.perBankRdBursts::12            4591                       # Per bank write bursts
system.mem_ctrls0.perBankRdBursts::13            4630                       # Per bank write bursts
system.mem_ctrls0.perBankRdBursts::14            4799                       # Per bank write bursts
system.mem_ctrls0.perBankRdBursts::15            4815                       # Per bank write bursts
system.mem_ctrls0.perBankWrBursts::0             3623                       # Per bank write bursts
system.mem_ctrls0.perBankWrBursts::1             3568                       # Per bank write bursts
system.mem_ctrls0.perBankWrBursts::2             3643                       # Per bank write bursts
system.mem_ctrls0.perBankWrBursts::3             3794                       # Per bank write bursts
system.mem_ctrls0.perBankWrBursts::4             3862                       # Per bank write bursts
system.mem_ctrls0.perBankWrBursts::5             4194                       # Per bank write bursts
system.mem_ctrls0.perBankWrBursts::6             3927                       # Per bank write bursts
system.mem_ctrls0.perBankWrBursts::7             4184                       # Per bank write bursts
system.mem_ctrls0.perBankWrBursts::8             4055                       # Per bank write bursts
system.mem_ctrls0.perBankWrBursts::9             4135                       # Per bank write bursts
system.mem_ctrls0.perBankWrBursts::10            3697                       # Per bank write bursts
system.mem_ctrls0.perBankWrBursts::11            3637                       # Per bank write bursts
system.mem_ctrls0.perBankWrBursts::12            3795                       # Per bank write bursts
system.mem_ctrls0.perBankWrBursts::13            3901                       # Per bank write bursts
system.mem_ctrls0.perBankWrBursts::14            4029                       # Per bank write bursts
system.mem_ctrls0.perBankWrBursts::15            3906                       # Per bank write bursts
system.mem_ctrls0.numRdRetry                        1                       # Number of times read queue was full causing retry
system.mem_ctrls0.numWrRetry                      121                       # Number of times write queue was full causing retry
system.mem_ctrls0.totGap                  37979903500                       # Total gap between requests
system.mem_ctrls0.readPktSize::0                    0                       # Read request sizes (log2)
system.mem_ctrls0.readPktSize::1                    0                       # Read request sizes (log2)
system.mem_ctrls0.readPktSize::2                    0                       # Read request sizes (log2)
system.mem_ctrls0.readPktSize::3                    0                       # Read request sizes (log2)
system.mem_ctrls0.readPktSize::4                    0                       # Read request sizes (log2)
system.mem_ctrls0.readPktSize::5                    0                       # Read request sizes (log2)
system.mem_ctrls0.readPktSize::6                77638                       # Read request sizes (log2)
system.mem_ctrls0.writePktSize::0                   0                       # Write request sizes (log2)
system.mem_ctrls0.writePktSize::1                   0                       # Write request sizes (log2)
system.mem_ctrls0.writePktSize::2                   0                       # Write request sizes (log2)
system.mem_ctrls0.writePktSize::3                   0                       # Write request sizes (log2)
system.mem_ctrls0.writePktSize::4                   0                       # Write request sizes (log2)
system.mem_ctrls0.writePktSize::5                   0                       # Write request sizes (log2)
system.mem_ctrls0.writePktSize::6               61951                       # Write request sizes (log2)
system.mem_ctrls0.rdQLenPdf::0                  59791                       # What read queue length does an incoming req see
system.mem_ctrls0.rdQLenPdf::1                  10711                       # What read queue length does an incoming req see
system.mem_ctrls0.rdQLenPdf::2                   3490                       # What read queue length does an incoming req see
system.mem_ctrls0.rdQLenPdf::3                   1441                       # What read queue length does an incoming req see
system.mem_ctrls0.rdQLenPdf::4                    785                       # What read queue length does an incoming req see
system.mem_ctrls0.rdQLenPdf::5                    467                       # What read queue length does an incoming req see
system.mem_ctrls0.rdQLenPdf::6                    272                       # What read queue length does an incoming req see
system.mem_ctrls0.rdQLenPdf::7                    156                       # What read queue length does an incoming req see
system.mem_ctrls0.rdQLenPdf::8                     97                       # What read queue length does an incoming req see
system.mem_ctrls0.rdQLenPdf::9                     68                       # What read queue length does an incoming req see
system.mem_ctrls0.rdQLenPdf::10                    51                       # What read queue length does an incoming req see
system.mem_ctrls0.rdQLenPdf::11                    39                       # What read queue length does an incoming req see
system.mem_ctrls0.rdQLenPdf::12                    35                       # What read queue length does an incoming req see
system.mem_ctrls0.rdQLenPdf::13                    32                       # What read queue length does an incoming req see
system.mem_ctrls0.rdQLenPdf::14                    23                       # What read queue length does an incoming req see
system.mem_ctrls0.rdQLenPdf::15                    23                       # What read queue length does an incoming req see
system.mem_ctrls0.rdQLenPdf::16                    19                       # What read queue length does an incoming req see
system.mem_ctrls0.rdQLenPdf::17                    20                       # What read queue length does an incoming req see
system.mem_ctrls0.rdQLenPdf::18                    19                       # What read queue length does an incoming req see
system.mem_ctrls0.rdQLenPdf::19                    13                       # What read queue length does an incoming req see
system.mem_ctrls0.rdQLenPdf::20                    14                       # What read queue length does an incoming req see
system.mem_ctrls0.rdQLenPdf::21                    11                       # What read queue length does an incoming req see
system.mem_ctrls0.rdQLenPdf::22                     9                       # What read queue length does an incoming req see
system.mem_ctrls0.rdQLenPdf::23                     9                       # What read queue length does an incoming req see
system.mem_ctrls0.rdQLenPdf::24                     9                       # What read queue length does an incoming req see
system.mem_ctrls0.rdQLenPdf::25                     4                       # What read queue length does an incoming req see
system.mem_ctrls0.rdQLenPdf::26                     2                       # What read queue length does an incoming req see
system.mem_ctrls0.rdQLenPdf::27                     1                       # What read queue length does an incoming req see
system.mem_ctrls0.rdQLenPdf::28                     1                       # What read queue length does an incoming req see
system.mem_ctrls0.rdQLenPdf::29                     1                       # What read queue length does an incoming req see
system.mem_ctrls0.rdQLenPdf::30                     1                       # What read queue length does an incoming req see
system.mem_ctrls0.rdQLenPdf::31                     2                       # What read queue length does an incoming req see
system.mem_ctrls0.wrQLenPdf::0                  11509                       # What write queue length does an incoming req see
system.mem_ctrls0.wrQLenPdf::1                  12629                       # What write queue length does an incoming req see
system.mem_ctrls0.wrQLenPdf::2                  12611                       # What write queue length does an incoming req see
system.mem_ctrls0.wrQLenPdf::3                  12378                       # What write queue length does an incoming req see
system.mem_ctrls0.wrQLenPdf::4                  12025                       # What write queue length does an incoming req see
system.mem_ctrls0.wrQLenPdf::5                    408                       # What write queue length does an incoming req see
system.mem_ctrls0.wrQLenPdf::6                    178                       # What write queue length does an incoming req see
system.mem_ctrls0.wrQLenPdf::7                    213                       # What write queue length does an incoming req see
system.mem_ctrls0.bytesPerActivate::samples        52745                       # Bytes accessed per row activation
system.mem_ctrls0.bytesPerActivate::mean   169.326685                       # Bytes accessed per row activation
system.mem_ctrls0.bytesPerActivate::gmean   120.156949                       # Bytes accessed per row activation
system.mem_ctrls0.bytesPerActivate::stdev   175.911642                       # Bytes accessed per row activation
system.mem_ctrls0.bytesPerActivate::0-127        27114     51.41%     51.41% # Bytes accessed per row activation
system.mem_ctrls0.bytesPerActivate::128-255        12951     24.55%     75.96% # Bytes accessed per row activation
system.mem_ctrls0.bytesPerActivate::256-383         7719     14.63%     90.59% # Bytes accessed per row activation
system.mem_ctrls0.bytesPerActivate::384-511         1927      3.65%     94.25% # Bytes accessed per row activation
system.mem_ctrls0.bytesPerActivate::512-639         1118      2.12%     96.37% # Bytes accessed per row activation
system.mem_ctrls0.bytesPerActivate::640-767          587      1.11%     97.48% # Bytes accessed per row activation
system.mem_ctrls0.bytesPerActivate::768-895          422      0.80%     98.28% # Bytes accessed per row activation
system.mem_ctrls0.bytesPerActivate::896-1023          315      0.60%     98.88% # Bytes accessed per row activation
system.mem_ctrls0.bytesPerActivate::1024-1151          592      1.12%    100.00% # Bytes accessed per row activation
system.mem_ctrls0.bytesPerActivate::total        52745                       # Bytes accessed per row activation
system.mem_ctrls0.rdPerTurnAround::samples        11533                       # Reads before turning the bus around for writes
system.mem_ctrls0.rdPerTurnAround::mean      6.729645                       # Reads before turning the bus around for writes
system.mem_ctrls0.rdPerTurnAround::stdev    37.597083                       # Reads before turning the bus around for writes
system.mem_ctrls0.rdPerTurnAround::0-127        11527     99.95%     99.95% # Reads before turning the bus around for writes
system.mem_ctrls0.rdPerTurnAround::128-255            5      0.04%     99.99% # Reads before turning the bus around for writes
system.mem_ctrls0.rdPerTurnAround::3968-4095            1      0.01%    100.00% # Reads before turning the bus around for writes
system.mem_ctrls0.rdPerTurnAround::total        11533                       # Reads before turning the bus around for writes
system.mem_ctrls0.wrPerTurnAround::samples        11533                       # Writes before turning the bus around for reads
system.mem_ctrls0.wrPerTurnAround::mean      5.371543                       # Writes before turning the bus around for reads
system.mem_ctrls0.wrPerTurnAround::gmean     5.294604                       # Writes before turning the bus around for reads
system.mem_ctrls0.wrPerTurnAround::stdev     1.135349                       # Writes before turning the bus around for reads
system.mem_ctrls0.wrPerTurnAround::4-7          11029     95.63%     95.63% # Writes before turning the bus around for reads
system.mem_ctrls0.wrPerTurnAround::8-11           419      3.63%     99.26% # Writes before turning the bus around for reads
system.mem_ctrls0.wrPerTurnAround::12-15           55      0.48%     99.74% # Writes before turning the bus around for reads
system.mem_ctrls0.wrPerTurnAround::16-19           30      0.26%    100.00% # Writes before turning the bus around for reads
system.mem_ctrls0.wrPerTurnAround::total        11533                       # Writes before turning the bus around for reads
system.mem_ctrls0.totQLat                  1896976399                       # Total ticks spent queuing
system.mem_ctrls0.totMemAccLat             3352276399                       # Total ticks spent from burst creation until serviced by the DRAM
system.mem_ctrls0.totBusLat                 388080000                       # Total ticks spent in databus transfers
system.mem_ctrls0.avgQLat                    24440.53                       # Average queueing delay per DRAM burst
system.mem_ctrls0.avgBusLat                   5000.00                       # Average bus latency per DRAM burst
system.mem_ctrls0.avgMemAccLat               43190.53                       # Average memory access latency per DRAM burst
system.mem_ctrls0.avgRdBW                      130.79                       # Average DRAM read bandwidth in MiByte/s
system.mem_ctrls0.avgWrBW                      104.39                       # Average achieved write bandwidth in MiByte/s
system.mem_ctrls0.avgRdBWSys                   130.83                       # Average system read bandwidth in MiByte/s
system.mem_ctrls0.avgWrBWSys                   104.39                       # Average system write bandwidth in MiByte/s
system.mem_ctrls0.peakBW                     12800.00                       # Theoretical peak bandwidth in MiByte/s
system.mem_ctrls0.busUtil                        1.84                       # Data bus utilization in percentage
system.mem_ctrls0.busUtilRead                    1.02                       # Data bus utilization in percentage for reads
system.mem_ctrls0.busUtilWrite                   0.82                       # Data bus utilization in percentage for writes
system.mem_ctrls0.avgRdQLen                      1.10                       # Average read queue length when enqueuing
system.mem_ctrls0.avgWrQLen                      2.85                       # Average write queue length when enqueuing
system.mem_ctrls0.readRowHits                   53493                       # Number of row buffer hits during reads
system.mem_ctrls0.writeRowHits                  33319                       # Number of row buffer hits during writes
system.mem_ctrls0.readRowHitRate                68.92                       # Row buffer hit rate for reads
system.mem_ctrls0.writeRowHitRate               53.78                       # Row buffer hit rate for writes
system.mem_ctrls0.avgGap                    272083.79                       # Average gap between requests
system.mem_ctrls0.pageHitRate                   62.20                       # Row buffer hit rate, read and write combined
system.mem_ctrls0.memoryStateTime::IDLE    8704153000                       # Time in different power states
system.mem_ctrls0.memoryStateTime::REF     1268020000                       # Time in different power states
system.mem_ctrls0.memoryStateTime::PRE_PDN            0                       # Time in different power states
system.mem_ctrls0.memoryStateTime::ACT    28001951500                       # Time in different power states
system.mem_ctrls0.memoryStateTime::ACT_PDN            0                       # Time in different power states
system.mem_ctrls0.actEnergy::0              199077480                       # Energy for activate commands per rank (pJ)
system.mem_ctrls0.actEnergy::1              199629360                       # Energy for activate commands per rank (pJ)
system.mem_ctrls0.preEnergy::0              108623625                       # Energy for precharge commands per rank (pJ)
system.mem_ctrls0.preEnergy::1              108924750                       # Energy for precharge commands per rank (pJ)
system.mem_ctrls0.readEnergy::0             305112600                       # Energy for read commands per rank (pJ)
system.mem_ctrls0.readEnergy::1             300144000                       # Energy for read commands per rank (pJ)
system.mem_ctrls0.writeEnergy::0            199525680                       # Energy for write commands per rank (pJ)
system.mem_ctrls0.writeEnergy::1            201845520                       # Energy for write commands per rank (pJ)
system.mem_ctrls0.refreshEnergy::0         2480247120                       # Energy for refresh commands per rank (pJ)
system.mem_ctrls0.refreshEnergy::1         2480247120                       # Energy for refresh commands per rank (pJ)
system.mem_ctrls0.actBackEnergy::0        15147457875                       # Energy for active background per rank (pJ)
system.mem_ctrls0.actBackEnergy::1        14697135360                       # Energy for active background per rank (pJ)
system.mem_ctrls0.preBackEnergy::0         9497037000                       # Energy for precharge background per rank (pJ)
system.mem_ctrls0.preBackEnergy::1         9892056750                       # Energy for precharge background per rank (pJ)
system.mem_ctrls0.totalEnergy::0          27937081380                       # Total energy per rank (pJ)
system.mem_ctrls0.totalEnergy::1          27879982860                       # Total energy per rank (pJ)
system.mem_ctrls0.averagePower::0          735.693569                       # Core power per rank (mW)
system.mem_ctrls0.averagePower::1          734.189940                       # Core power per rank (mW)
system.mem_ctrls1.bytes_read::ruby.dir_cntrl1      4882176                       # Number of bytes read from this memory
system.mem_ctrls1.bytes_read::total           4882176                       # Number of bytes read from this memory
system.mem_ctrls1.bytes_written::ruby.dir_cntrl1      3886144                       # Number of bytes written to this memory
system.mem_ctrls1.bytes_written::total        3886144                       # Number of bytes written to this memory
system.mem_ctrls1.num_reads::ruby.dir_cntrl1        76284                       # Number of read requests responded to by this memory
system.mem_ctrls1.num_reads::total              76284                       # Number of read requests responded to by this memory
system.mem_ctrls1.num_writes::ruby.dir_cntrl1        60721                       # Number of write requests responded to by this memory
system.mem_ctrls1.num_writes::total             60721                       # Number of write requests responded to by this memory
system.mem_ctrls1.bw_read::ruby.dir_cntrl1    128544675                       # Total read bandwidth from this memory (bytes/s)
system.mem_ctrls1.bw_read::total            128544675                       # Total read bandwidth from this memory (bytes/s)
system.mem_ctrls1.bw_write::ruby.dir_cntrl1    102319769                       # Write bandwidth from this memory (bytes/s)
system.mem_ctrls1.bw_write::total           102319769                       # Write bandwidth from this memory (bytes/s)
system.mem_ctrls1.bw_total::ruby.dir_cntrl1    230864444                       # Total bandwidth to/from this memory (bytes/s)
system.mem_ctrls1.bw_total::total           230864444                       # Total bandwidth to/from this memory (bytes/s)
system.mem_ctrls1.readReqs                      76284                       # Number of read requests accepted
system.mem_ctrls1.writeReqs                     60721                       # Number of write requests accepted
system.mem_ctrls1.readBursts                    76284                       # Number of DRAM read bursts, including those serviced by the write queue
system.mem_ctrls1.writeBursts                   60721                       # Number of DRAM write bursts, including those merged in the write queue
system.mem_ctrls1.bytesReadDRAM               4881408                       # Total number of bytes read from DRAM
system.mem_ctrls1.bytesReadWrQ                    768                       # Total number of bytes read from write queue
system.mem_ctrls1.bytesWritten                3886144                       # Total number of bytes written to DRAM
system.mem_ctrls1.bytesReadSys                4882176                       # Total read bytes from the system interface side
system.mem_ctrls1.bytesWrittenSys             3886144                       # Total written bytes from the system interface side
system.mem_ctrls1.servicedByWrQ                    12                       # Number of DRAM read bursts serviced by the write queue
system.mem_ctrls1.mergedWrBursts                    0                       # Number of DRAM write bursts merged with an existing one
system.mem_ctrls1.neitherReadNorWriteReqs            0                       # Number of requests that are neither read nor write
system.mem_ctrls1.perBankRdBursts::0             4325                       # Per bank write bursts
system.mem_ctrls1.perBankRdBursts::1             4748                       # Per bank write bursts
system.mem_ctrls1.perBankRdBursts::2             4464                       # Per bank write bursts
system.mem_ctrls1.perBankRdBursts::3             4894                       # Per bank write bursts
system.mem_ctrls1.perBankRdBursts::4             4783                       # Per bank write bursts
system.mem_ctrls1.perBankRdBursts::5             5302                       # Per bank write bursts
system.mem_ctrls1.perBankRdBursts::6             4883                       # Per bank write bursts
system.mem_ctrls1.perBankRdBursts::7             5161                       # Per bank write bursts
system.mem_ctrls1.perBankRdBursts::8             4937                       # Per bank write bursts
system.mem_ctrls1.perBankRdBursts::9             5090                       # Per bank write bursts
system.mem_ctrls1.perBankRdBursts::10            4517                       # Per bank write bursts
system.mem_ctrls1.perBankRdBursts::11            4727                       # Per bank write bursts
system.mem_ctrls1.perBankRdBursts::12            4493                       # Per bank write bursts
system.mem_ctrls1.perBankRdBursts::13            4573                       # Per bank write bursts
system.mem_ctrls1.perBankRdBursts::14            4636                       # Per bank write bursts
system.mem_ctrls1.perBankRdBursts::15            4739                       # Per bank write bursts
system.mem_ctrls1.perBankWrBursts::0             3557                       # Per bank write bursts
system.mem_ctrls1.perBankWrBursts::1             3507                       # Per bank write bursts
system.mem_ctrls1.perBankWrBursts::2             3578                       # Per bank write bursts
system.mem_ctrls1.perBankWrBursts::3             3743                       # Per bank write bursts
system.mem_ctrls1.perBankWrBursts::4             3792                       # Per bank write bursts
system.mem_ctrls1.perBankWrBursts::5             4126                       # Per bank write bursts
system.mem_ctrls1.perBankWrBursts::6             3847                       # Per bank write bursts
system.mem_ctrls1.perBankWrBursts::7             4097                       # Per bank write bursts
system.mem_ctrls1.perBankWrBursts::8             3968                       # Per bank write bursts
system.mem_ctrls1.perBankWrBursts::9             4035                       # Per bank write bursts
system.mem_ctrls1.perBankWrBursts::10            3617                       # Per bank write bursts
system.mem_ctrls1.perBankWrBursts::11            3570                       # Per bank write bursts
system.mem_ctrls1.perBankWrBursts::12            3719                       # Per bank write bursts
system.mem_ctrls1.perBankWrBursts::13            3830                       # Per bank write bursts
system.mem_ctrls1.perBankWrBursts::14            3899                       # Per bank write bursts
system.mem_ctrls1.perBankWrBursts::15            3836                       # Per bank write bursts
system.mem_ctrls1.numRdRetry                        3                       # Number of times read queue was full causing retry
system.mem_ctrls1.numWrRetry                      152                       # Number of times write queue was full causing retry
system.mem_ctrls1.totGap                  37979664500                       # Total gap between requests
system.mem_ctrls1.readPktSize::0                    0                       # Read request sizes (log2)
system.mem_ctrls1.readPktSize::1                    0                       # Read request sizes (log2)
system.mem_ctrls1.readPktSize::2                    0                       # Read request sizes (log2)
system.mem_ctrls1.readPktSize::3                    0                       # Read request sizes (log2)
system.mem_ctrls1.readPktSize::4                    0                       # Read request sizes (log2)
system.mem_ctrls1.readPktSize::5                    0                       # Read request sizes (log2)
system.mem_ctrls1.readPktSize::6                76284                       # Read request sizes (log2)
system.mem_ctrls1.writePktSize::0                   0                       # Write request sizes (log2)
system.mem_ctrls1.writePktSize::1                   0                       # Write request sizes (log2)
system.mem_ctrls1.writePktSize::2                   0                       # Write request sizes (log2)
system.mem_ctrls1.writePktSize::3                   0                       # Write request sizes (log2)
system.mem_ctrls1.writePktSize::4                   0                       # Write request sizes (log2)
system.mem_ctrls1.writePktSize::5                   0                       # Write request sizes (log2)
system.mem_ctrls1.writePktSize::6               60721                       # Write request sizes (log2)
system.mem_ctrls1.rdQLenPdf::0                  59225                       # What read queue length does an incoming req see
system.mem_ctrls1.rdQLenPdf::1                  10121                       # What read queue length does an incoming req see
system.mem_ctrls1.rdQLenPdf::2                   3298                       # What read queue length does an incoming req see
system.mem_ctrls1.rdQLenPdf::3                   1385                       # What read queue length does an incoming req see
system.mem_ctrls1.rdQLenPdf::4                    781                       # What read queue length does an incoming req see
system.mem_ctrls1.rdQLenPdf::5                    480                       # What read queue length does an incoming req see
system.mem_ctrls1.rdQLenPdf::6                    297                       # What read queue length does an incoming req see
system.mem_ctrls1.rdQLenPdf::7                    187                       # What read queue length does an incoming req see
system.mem_ctrls1.rdQLenPdf::8                     98                       # What read queue length does an incoming req see
system.mem_ctrls1.rdQLenPdf::9                     80                       # What read queue length does an incoming req see
system.mem_ctrls1.rdQLenPdf::10                    52                       # What read queue length does an incoming req see
system.mem_ctrls1.rdQLenPdf::11                    32                       # What read queue length does an incoming req see
system.mem_ctrls1.rdQLenPdf::12                    35                       # What read queue length does an incoming req see
system.mem_ctrls1.rdQLenPdf::13                    34                       # What read queue length does an incoming req see
system.mem_ctrls1.rdQLenPdf::14                    22                       # What read queue length does an incoming req see
system.mem_ctrls1.rdQLenPdf::15                    21                       # What read queue length does an incoming req see
system.mem_ctrls1.rdQLenPdf::16                    18                       # What read queue length does an incoming req see
system.mem_ctrls1.rdQLenPdf::17                    21                       # What read queue length does an incoming req see
system.mem_ctrls1.rdQLenPdf::18                    13                       # What read queue length does an incoming req see
system.mem_ctrls1.rdQLenPdf::19                    14                       # What read queue length does an incoming req see
system.mem_ctrls1.rdQLenPdf::20                    14                       # What read queue length does an incoming req see
system.mem_ctrls1.rdQLenPdf::21                    11                       # What read queue length does an incoming req see
system.mem_ctrls1.rdQLenPdf::22                     7                       # What read queue length does an incoming req see
system.mem_ctrls1.rdQLenPdf::23                     5                       # What read queue length does an incoming req see
system.mem_ctrls1.rdQLenPdf::24                     4                       # What read queue length does an incoming req see
system.mem_ctrls1.rdQLenPdf::25                     4                       # What read queue length does an incoming req see
system.mem_ctrls1.rdQLenPdf::26                     4                       # What read queue length does an incoming req see
system.mem_ctrls1.rdQLenPdf::27                     2                       # What read queue length does an incoming req see
system.mem_ctrls1.rdQLenPdf::28                     1                       # What read queue length does an incoming req see
system.mem_ctrls1.rdQLenPdf::29                     1                       # What read queue length does an incoming req see
system.mem_ctrls1.rdQLenPdf::30                     1                       # What read queue length does an incoming req see
system.mem_ctrls1.rdQLenPdf::31                     4                       # What read queue length does an incoming req see
system.mem_ctrls1.wrQLenPdf::0                  11288                       # What write queue length does an incoming req see
system.mem_ctrls1.wrQLenPdf::1                  12353                       # What write queue length does an incoming req see
system.mem_ctrls1.wrQLenPdf::2                  12369                       # What write queue length does an incoming req see
system.mem_ctrls1.wrQLenPdf::3                  12135                       # What write queue length does an incoming req see
system.mem_ctrls1.wrQLenPdf::4                  11750                       # What write queue length does an incoming req see
system.mem_ctrls1.wrQLenPdf::5                    405                       # What write queue length does an incoming req see
system.mem_ctrls1.wrQLenPdf::6                    175                       # What write queue length does an incoming req see
system.mem_ctrls1.wrQLenPdf::7                    246                       # What write queue length does an incoming req see
system.mem_ctrls1.bytesPerActivate::samples        50713                       # Bytes accessed per row activation
system.mem_ctrls1.bytesPerActivate::mean   172.864236                       # Bytes accessed per row activation
system.mem_ctrls1.bytesPerActivate::gmean   122.044887                       # Bytes accessed per row activation
system.mem_ctrls1.bytesPerActivate::stdev   179.706628                       # Bytes accessed per row activation
system.mem_ctrls1.bytesPerActivate::0-127        25646     50.57%     50.57% # Bytes accessed per row activation
system.mem_ctrls1.bytesPerActivate::128-255        12515     24.68%     75.25% # Bytes accessed per row activation
system.mem_ctrls1.bytesPerActivate::256-383         7575     14.94%     90.19% # Bytes accessed per row activation
system.mem_ctrls1.bytesPerActivate::384-511         1900      3.75%     93.93% # Bytes accessed per row activation
system.mem_ctrls1.bytesPerActivate::512-639         1126      2.22%     96.15% # Bytes accessed per row activation
system.mem_ctrls1.bytesPerActivate::640-767          585      1.15%     97.31% # Bytes accessed per row activation
system.mem_ctrls1.bytesPerActivate::768-895          433      0.85%     98.16% # Bytes accessed per row activation
system.mem_ctrls1.bytesPerActivate::896-1023          313      0.62%     98.78% # Bytes accessed per row activation
system.mem_ctrls1.bytesPerActivate::1024-1151          620      1.22%    100.00% # Bytes accessed per row activation
system.mem_ctrls1.bytesPerActivate::total        50713                       # Bytes accessed per row activation
system.mem_ctrls1.rdPerTurnAround::samples        11303                       # Reads before turning the bus around for writes
system.mem_ctrls1.rdPerTurnAround::mean      6.747943                       # Reads before turning the bus around for writes
system.mem_ctrls1.rdPerTurnAround::stdev    29.940011                       # Reads before turning the bus around for writes
system.mem_ctrls1.rdPerTurnAround::0-127        11298     99.96%     99.96% # Reads before turning the bus around for writes
system.mem_ctrls1.rdPerTurnAround::128-255            3      0.03%     99.98% # Reads before turning the bus around for writes
system.mem_ctrls1.rdPerTurnAround::1152-1279            1      0.01%     99.99% # Reads before turning the bus around for writes
system.mem_ctrls1.rdPerTurnAround::2816-2943            1      0.01%    100.00% # Reads before turning the bus around for writes
system.mem_ctrls1.rdPerTurnAround::total        11303                       # Reads before turning the bus around for writes
system.mem_ctrls1.wrPerTurnAround::samples        11303                       # Writes before turning the bus around for reads
system.mem_ctrls1.wrPerTurnAround::mean      5.372114                       # Writes before turning the bus around for reads
system.mem_ctrls1.wrPerTurnAround::gmean     5.291639                       # Writes before turning the bus around for reads
system.mem_ctrls1.wrPerTurnAround::stdev     1.163766                       # Writes before turning the bus around for reads
system.mem_ctrls1.wrPerTurnAround::4-7          10830     95.82%     95.82% # Writes before turning the bus around for reads
system.mem_ctrls1.wrPerTurnAround::8-11           373      3.30%     99.12% # Writes before turning the bus around for reads
system.mem_ctrls1.wrPerTurnAround::12-15           81      0.72%     99.83% # Writes before turning the bus around for reads
system.mem_ctrls1.wrPerTurnAround::16-19           19      0.17%    100.00% # Writes before turning the bus around for reads
system.mem_ctrls1.wrPerTurnAround::total        11303                       # Writes before turning the bus around for reads
system.mem_ctrls1.totQLat                  1853826593                       # Total ticks spent queuing
system.mem_ctrls1.totMemAccLat             3283926593                       # Total ticks spent from burst creation until serviced by the DRAM
system.mem_ctrls1.totBusLat                 381360000                       # Total ticks spent in databus transfers
system.mem_ctrls1.avgQLat                    24305.47                       # Average queueing delay per DRAM burst
system.mem_ctrls1.avgBusLat                   5000.00                       # Average bus latency per DRAM burst
system.mem_ctrls1.avgMemAccLat               43055.47                       # Average memory access latency per DRAM burst
system.mem_ctrls1.avgRdBW                      128.52                       # Average DRAM read bandwidth in MiByte/s
system.mem_ctrls1.avgWrBW                      102.32                       # Average achieved write bandwidth in MiByte/s
system.mem_ctrls1.avgRdBWSys                   128.54                       # Average system read bandwidth in MiByte/s
system.mem_ctrls1.avgWrBWSys                   102.32                       # Average system write bandwidth in MiByte/s
system.mem_ctrls1.peakBW                     12800.00                       # Theoretical peak bandwidth in MiByte/s
system.mem_ctrls1.busUtil                        1.80                       # Data bus utilization in percentage
system.mem_ctrls1.busUtilRead                    1.00                       # Data bus utilization in percentage for reads
system.mem_ctrls1.busUtilWrite                   0.80                       # Data bus utilization in percentage for writes
system.mem_ctrls1.avgRdQLen                      1.07                       # Average read queue length when enqueuing
system.mem_ctrls1.avgWrQLen                      2.91                       # Average write queue length when enqueuing
system.mem_ctrls1.readRowHits                   52756                       # Number of row buffer hits during reads
system.mem_ctrls1.writeRowHits                  33513                       # Number of row buffer hits during writes
system.mem_ctrls1.readRowHitRate                69.17                       # Row buffer hit rate for reads
system.mem_ctrls1.writeRowHitRate               55.19                       # Row buffer hit rate for writes
system.mem_ctrls1.avgGap                    277213.71                       # Average gap between requests
system.mem_ctrls1.pageHitRate                   62.97                       # Row buffer hit rate, read and write combined
system.mem_ctrls1.memoryStateTime::IDLE    9057944000                       # Time in different power states
system.mem_ctrls1.memoryStateTime::REF     1268020000                       # Time in different power states
system.mem_ctrls1.memoryStateTime::PRE_PDN            0                       # Time in different power states
system.mem_ctrls1.memoryStateTime::ACT    27648315000                       # Time in different power states
system.mem_ctrls1.memoryStateTime::ACT_PDN            0                       # Time in different power states
system.mem_ctrls1.actEnergy::0              192893400                       # Energy for activate commands per rank (pJ)
system.mem_ctrls1.actEnergy::1              190421280                       # Energy for activate commands per rank (pJ)
system.mem_ctrls1.preEnergy::0              105249375                       # Energy for precharge commands per rank (pJ)
system.mem_ctrls1.preEnergy::1              103900500                       # Energy for precharge commands per rank (pJ)
system.mem_ctrls1.readEnergy::0             300682200                       # Energy for read commands per rank (pJ)
system.mem_ctrls1.readEnergy::1             294052200                       # Energy for read commands per rank (pJ)
system.mem_ctrls1.writeEnergy::0            195987600                       # Energy for write commands per rank (pJ)
system.mem_ctrls1.writeEnergy::1            197387280                       # Energy for write commands per rank (pJ)
system.mem_ctrls1.refreshEnergy::0         2480247120                       # Energy for refresh commands per rank (pJ)
system.mem_ctrls1.refreshEnergy::1         2480247120                       # Energy for refresh commands per rank (pJ)
system.mem_ctrls1.actBackEnergy::0        15035670045                       # Energy for active background per rank (pJ)
system.mem_ctrls1.actBackEnergy::1        14294786895                       # Energy for active background per rank (pJ)
system.mem_ctrls1.preBackEnergy::0         9595096500                       # Energy for precharge background per rank (pJ)
system.mem_ctrls1.preBackEnergy::1        10244994000                       # Energy for precharge background per rank (pJ)
system.mem_ctrls1.totalEnergy::0          27905826240                       # Total energy per rank (pJ)
system.mem_ctrls1.totalEnergy::1          27805789275                       # Total energy per rank (pJ)
system.mem_ctrls1.averagePower::0          734.870498                       # Core power per rank (mW)
system.mem_ctrls1.averagePower::1          732.236130                       # Core power per rank (mW)
system.mem_ctrls2.bytes_read::ruby.dir_cntrl2      4880896                       # Number of bytes read from this memory
system.mem_ctrls2.bytes_read::total           4880896                       # Number of bytes read from this memory
system.mem_ctrls2.bytes_written::ruby.dir_cntrl2      3885504                       # Number of bytes written to this memory
system.mem_ctrls2.bytes_written::total        3885504                       # Number of bytes written to this memory
system.mem_ctrls2.num_reads::ruby.dir_cntrl2        76264                       # Number of read requests responded to by this memory
system.mem_ctrls2.num_reads::total              76264                       # Number of read requests responded to by this memory
system.mem_ctrls2.num_writes::ruby.dir_cntrl2        60711                       # Number of write requests responded to by this memory
system.mem_ctrls2.num_writes::total             60711                       # Number of write requests responded to by this memory
system.mem_ctrls2.bw_read::ruby.dir_cntrl2    128510974                       # Total read bandwidth from this memory (bytes/s)
system.mem_ctrls2.bw_read::total            128510974                       # Total read bandwidth from this memory (bytes/s)
system.mem_ctrls2.bw_write::ruby.dir_cntrl2    102302918                       # Write bandwidth from this memory (bytes/s)
system.mem_ctrls2.bw_write::total           102302918                       # Write bandwidth from this memory (bytes/s)
system.mem_ctrls2.bw_total::ruby.dir_cntrl2    230813891                       # Total bandwidth to/from this memory (bytes/s)
system.mem_ctrls2.bw_total::total           230813891                       # Total bandwidth to/from this memory (bytes/s)
system.mem_ctrls2.readReqs                      76264                       # Number of read requests accepted
system.mem_ctrls2.writeReqs                     60711                       # Number of write requests accepted
system.mem_ctrls2.readBursts                    76264                       # Number of DRAM read bursts, including those serviced by the write queue
system.mem_ctrls2.writeBursts                   60711                       # Number of DRAM write bursts, including those merged in the write queue
system.mem_ctrls2.bytesReadDRAM               4879872                       # Total number of bytes read from DRAM
system.mem_ctrls2.bytesReadWrQ                   1024                       # Total number of bytes read from write queue
system.mem_ctrls2.bytesWritten                3885376                       # Total number of bytes written to DRAM
system.mem_ctrls2.bytesReadSys                4880896                       # Total read bytes from the system interface side
system.mem_ctrls2.bytesWrittenSys             3885504                       # Total written bytes from the system interface side
system.mem_ctrls2.servicedByWrQ                    16                       # Number of DRAM read bursts serviced by the write queue
system.mem_ctrls2.mergedWrBursts                    0                       # Number of DRAM write bursts merged with an existing one
system.mem_ctrls2.neitherReadNorWriteReqs            0                       # Number of requests that are neither read nor write
system.mem_ctrls2.perBankRdBursts::0             4319                       # Per bank write bursts
system.mem_ctrls2.perBankRdBursts::1             4752                       # Per bank write bursts
system.mem_ctrls2.perBankRdBursts::2             4469                       # Per bank write bursts
system.mem_ctrls2.perBankRdBursts::3             4903                       # Per bank write bursts
system.mem_ctrls2.perBankRdBursts::4             4777                       # Per bank write bursts
system.mem_ctrls2.perBankRdBursts::5             5296                       # Per bank write bursts
system.mem_ctrls2.perBankRdBursts::6             4860                       # Per bank write bursts
system.mem_ctrls2.perBankRdBursts::7             5159                       # Per bank write bursts
system.mem_ctrls2.perBankRdBursts::8             4915                       # Per bank write bursts
system.mem_ctrls2.perBankRdBursts::9             5101                       # Per bank write bursts
system.mem_ctrls2.perBankRdBursts::10            4520                       # Per bank write bursts
system.mem_ctrls2.perBankRdBursts::11            4767                       # Per bank write bursts
system.mem_ctrls2.perBankRdBursts::12            4492                       # Per bank write bursts
system.mem_ctrls2.perBankRdBursts::13            4542                       # Per bank write bursts
system.mem_ctrls2.perBankRdBursts::14            4623                       # Per bank write bursts
system.mem_ctrls2.perBankRdBursts::15            4753                       # Per bank write bursts
system.mem_ctrls2.perBankWrBursts::0             3555                       # Per bank write bursts
system.mem_ctrls2.perBankWrBursts::1             3508                       # Per bank write bursts
system.mem_ctrls2.perBankWrBursts::2             3572                       # Per bank write bursts
system.mem_ctrls2.perBankWrBursts::3             3732                       # Per bank write bursts
system.mem_ctrls2.perBankWrBursts::4             3787                       # Per bank write bursts
system.mem_ctrls2.perBankWrBursts::5             4120                       # Per bank write bursts
system.mem_ctrls2.perBankWrBursts::6             3850                       # Per bank write bursts
system.mem_ctrls2.perBankWrBursts::7             4111                       # Per bank write bursts
system.mem_ctrls2.perBankWrBursts::8             3965                       # Per bank write bursts
system.mem_ctrls2.perBankWrBursts::9             4046                       # Per bank write bursts
system.mem_ctrls2.perBankWrBursts::10            3616                       # Per bank write bursts
system.mem_ctrls2.perBankWrBursts::11            3577                       # Per bank write bursts
system.mem_ctrls2.perBankWrBursts::12            3719                       # Per bank write bursts
system.mem_ctrls2.perBankWrBursts::13            3820                       # Per bank write bursts
system.mem_ctrls2.perBankWrBursts::14            3894                       # Per bank write bursts
system.mem_ctrls2.perBankWrBursts::15            3837                       # Per bank write bursts
system.mem_ctrls2.numRdRetry                        0                       # Number of times read queue was full causing retry
system.mem_ctrls2.numWrRetry                      108                       # Number of times write queue was full causing retry
system.mem_ctrls2.totGap                  37980152500                       # Total gap between requests
system.mem_ctrls2.readPktSize::0                    0                       # Read request sizes (log2)
system.mem_ctrls2.readPktSize::1                    0                       # Read request sizes (log2)
system.mem_ctrls2.readPktSize::2                    0                       # Read request sizes (log2)
system.mem_ctrls2.readPktSize::3                    0                       # Read request sizes (log2)
system.mem_ctrls2.readPktSize::4                    0                       # Read request sizes (log2)
system.mem_ctrls2.readPktSize::5                    0                       # Read request sizes (log2)
system.mem_ctrls2.readPktSize::6                76264                       # Read request sizes (log2)
system.mem_ctrls2.writePktSize::0                   0                       # Write request sizes (log2)
system.mem_ctrls2.writePktSize::1                   0                       # Write request sizes (log2)
system.mem_ctrls2.writePktSize::2                   0                       # Write request sizes (log2)
system.mem_ctrls2.writePktSize::3                   0                       # Write request sizes (log2)
system.mem_ctrls2.writePktSize::4                   0                       # Write request sizes (log2)
system.mem_ctrls2.writePktSize::5                   0                       # Write request sizes (log2)
system.mem_ctrls2.writePktSize::6               60711                       # Write request sizes (log2)
system.mem_ctrls2.rdQLenPdf::0                  59342                       # What read queue length does an incoming req see
system.mem_ctrls2.rdQLenPdf::1                  10223                       # What read queue length does an incoming req see
system.mem_ctrls2.rdQLenPdf::2                   3248                       # What read queue length does an incoming req see
system.mem_ctrls2.rdQLenPdf::3                   1408                       # What read queue length does an incoming req see
system.mem_ctrls2.rdQLenPdf::4                    757                       # What read queue length does an incoming req see
system.mem_ctrls2.rdQLenPdf::5                    436                       # What read queue length does an incoming req see
system.mem_ctrls2.rdQLenPdf::6                    246                       # What read queue length does an incoming req see
system.mem_ctrls2.rdQLenPdf::7                    151                       # What read queue length does an incoming req see
system.mem_ctrls2.rdQLenPdf::8                     94                       # What read queue length does an incoming req see
system.mem_ctrls2.rdQLenPdf::9                     69                       # What read queue length does an incoming req see
system.mem_ctrls2.rdQLenPdf::10                    63                       # What read queue length does an incoming req see
system.mem_ctrls2.rdQLenPdf::11                    41                       # What read queue length does an incoming req see
system.mem_ctrls2.rdQLenPdf::12                    33                       # What read queue length does an incoming req see
system.mem_ctrls2.rdQLenPdf::13                    33                       # What read queue length does an incoming req see
system.mem_ctrls2.rdQLenPdf::14                    30                       # What read queue length does an incoming req see
system.mem_ctrls2.rdQLenPdf::15                    22                       # What read queue length does an incoming req see
system.mem_ctrls2.rdQLenPdf::16                    13                       # What read queue length does an incoming req see
system.mem_ctrls2.rdQLenPdf::17                    11                       # What read queue length does an incoming req see
system.mem_ctrls2.rdQLenPdf::18                     8                       # What read queue length does an incoming req see
system.mem_ctrls2.rdQLenPdf::19                     6                       # What read queue length does an incoming req see
system.mem_ctrls2.rdQLenPdf::20                     5                       # What read queue length does an incoming req see
system.mem_ctrls2.rdQLenPdf::21                     4                       # What read queue length does an incoming req see
system.mem_ctrls2.rdQLenPdf::22                     3                       # What read queue length does an incoming req see
system.mem_ctrls2.rdQLenPdf::23                     1                       # What read queue length does an incoming req see
system.mem_ctrls2.rdQLenPdf::24                     1                       # What read queue length does an incoming req see
system.mem_ctrls2.rdQLenPdf::25                     0                       # What read queue length does an incoming req see
system.mem_ctrls2.rdQLenPdf::26                     0                       # What read queue length does an incoming req see
system.mem_ctrls2.rdQLenPdf::27                     0                       # What read queue length does an incoming req see
system.mem_ctrls2.rdQLenPdf::28                     0                       # What read queue length does an incoming req see
system.mem_ctrls2.rdQLenPdf::29                     0                       # What read queue length does an incoming req see
system.mem_ctrls2.rdQLenPdf::30                     0                       # What read queue length does an incoming req see
system.mem_ctrls2.rdQLenPdf::31                     0                       # What read queue length does an incoming req see
system.mem_ctrls2.wrQLenPdf::0                  11318                       # What write queue length does an incoming req see
system.mem_ctrls2.wrQLenPdf::1                  12360                       # What write queue length does an incoming req see
system.mem_ctrls2.wrQLenPdf::2                  12363                       # What write queue length does an incoming req see
system.mem_ctrls2.wrQLenPdf::3                  12137                       # What write queue length does an incoming req see
system.mem_ctrls2.wrQLenPdf::4                  11743                       # What write queue length does an incoming req see
system.mem_ctrls2.wrQLenPdf::5                    408                       # What write queue length does an incoming req see
system.mem_ctrls2.wrQLenPdf::6                    173                       # What write queue length does an incoming req see
system.mem_ctrls2.wrQLenPdf::7                    209                       # What write queue length does an incoming req see
system.mem_ctrls2.bytesPerActivate::samples        50755                       # Bytes accessed per row activation
system.mem_ctrls2.bytesPerActivate::mean   172.670752                       # Bytes accessed per row activation
system.mem_ctrls2.bytesPerActivate::gmean   122.085433                       # Bytes accessed per row activation
system.mem_ctrls2.bytesPerActivate::stdev   178.922816                       # Bytes accessed per row activation
system.mem_ctrls2.bytesPerActivate::0-127        25627     50.49%     50.49% # Bytes accessed per row activation
system.mem_ctrls2.bytesPerActivate::128-255        12558     24.74%     75.23% # Bytes accessed per row activation
system.mem_ctrls2.bytesPerActivate::256-383         7621     15.02%     90.25% # Bytes accessed per row activation
system.mem_ctrls2.bytesPerActivate::384-511         1870      3.68%     93.93% # Bytes accessed per row activation
system.mem_ctrls2.bytesPerActivate::512-639         1108      2.18%     96.12% # Bytes accessed per row activation
system.mem_ctrls2.bytesPerActivate::640-767          634      1.25%     97.37% # Bytes accessed per row activation
system.mem_ctrls2.bytesPerActivate::768-895          431      0.85%     98.21% # Bytes accessed per row activation
system.mem_ctrls2.bytesPerActivate::896-1023          302      0.60%     98.81% # Bytes accessed per row activation
system.mem_ctrls2.bytesPerActivate::1024-1151          604      1.19%    100.00% # Bytes accessed per row activation
system.mem_ctrls2.bytesPerActivate::total        50755                       # Bytes accessed per row activation
system.mem_ctrls2.rdPerTurnAround::samples        11334                       # Reads before turning the bus around for writes
system.mem_ctrls2.rdPerTurnAround::mean      6.726751                       # Reads before turning the bus around for writes
system.mem_ctrls2.rdPerTurnAround::stdev    29.964185                       # Reads before turning the bus around for writes
system.mem_ctrls2.rdPerTurnAround::0-127        11329     99.96%     99.96% # Reads before turning the bus around for writes
system.mem_ctrls2.rdPerTurnAround::128-255            3      0.03%     99.98% # Reads before turning the bus around for writes
system.mem_ctrls2.rdPerTurnAround::1152-1279            1      0.01%     99.99% # Reads before turning the bus around for writes
system.mem_ctrls2.rdPerTurnAround::2816-2943            1      0.01%    100.00% # Reads before turning the bus around for writes
system.mem_ctrls2.rdPerTurnAround::total        11334                       # Reads before turning the bus around for writes
system.mem_ctrls2.wrPerTurnAround::samples        11334                       # Writes before turning the bus around for reads
system.mem_ctrls2.wrPerTurnAround::mean      5.356361                       # Writes before turning the bus around for reads
system.mem_ctrls2.wrPerTurnAround::gmean     5.282325                       # Writes before turning the bus around for reads
system.mem_ctrls2.wrPerTurnAround::stdev     1.106188                       # Writes before turning the bus around for reads
system.mem_ctrls2.wrPerTurnAround::4-7          10869     95.90%     95.90% # Writes before turning the bus around for reads
system.mem_ctrls2.wrPerTurnAround::8-11           379      3.34%     99.24% # Writes before turning the bus around for reads
system.mem_ctrls2.wrPerTurnAround::12-15           68      0.60%     99.84% # Writes before turning the bus around for reads
system.mem_ctrls2.wrPerTurnAround::16-19           18      0.16%    100.00% # Writes before turning the bus around for reads
system.mem_ctrls2.wrPerTurnAround::total        11334                       # Writes before turning the bus around for reads
system.mem_ctrls2.totQLat                  1788305176                       # Total ticks spent queuing
system.mem_ctrls2.totMemAccLat             3217955176                       # Total ticks spent from burst creation until serviced by the DRAM
system.mem_ctrls2.totBusLat                 381240000                       # Total ticks spent in databus transfers
system.mem_ctrls2.avgQLat                    23453.80                       # Average queueing delay per DRAM burst
system.mem_ctrls2.avgBusLat                   5000.00                       # Average bus latency per DRAM burst
system.mem_ctrls2.avgMemAccLat               42203.80                       # Average memory access latency per DRAM burst
system.mem_ctrls2.avgRdBW                      128.48                       # Average DRAM read bandwidth in MiByte/s
system.mem_ctrls2.avgWrBW                      102.30                       # Average achieved write bandwidth in MiByte/s
system.mem_ctrls2.avgRdBWSys                   128.51                       # Average system read bandwidth in MiByte/s
system.mem_ctrls2.avgWrBWSys                   102.30                       # Average system write bandwidth in MiByte/s
system.mem_ctrls2.peakBW                     12800.00                       # Theoretical peak bandwidth in MiByte/s
system.mem_ctrls2.busUtil                        1.80                       # Data bus utilization in percentage
system.mem_ctrls2.busUtilRead                    1.00                       # Data bus utilization in percentage for reads
system.mem_ctrls2.busUtilWrite                   0.80                       # Data bus utilization in percentage for writes
system.mem_ctrls2.avgRdQLen                      1.07                       # Average read queue length when enqueuing
system.mem_ctrls2.avgWrQLen                      2.92                       # Average write queue length when enqueuing
system.mem_ctrls2.readRowHits                   52738                       # Number of row buffer hits during reads
system.mem_ctrls2.writeRowHits                  33456                       # Number of row buffer hits during writes
system.mem_ctrls2.readRowHitRate                69.17                       # Row buffer hit rate for reads
system.mem_ctrls2.writeRowHitRate               55.11                       # Row buffer hit rate for writes
system.mem_ctrls2.avgGap                    277277.99                       # Average gap between requests
system.mem_ctrls2.pageHitRate                   62.93                       # Row buffer hit rate, read and write combined
system.mem_ctrls2.memoryStateTime::IDLE    9043583500                       # Time in different power states
system.mem_ctrls2.memoryStateTime::REF     1268020000                       # Time in different power states
system.mem_ctrls2.memoryStateTime::PRE_PDN            0                       # Time in different power states
system.mem_ctrls2.memoryStateTime::ACT    27662211500                       # Time in different power states
system.mem_ctrls2.memoryStateTime::ACT_PDN            0                       # Time in different power states
system.mem_ctrls2.actEnergy::0              192333960                       # Energy for activate commands per rank (pJ)
system.mem_ctrls2.actEnergy::1              191343600                       # Energy for activate commands per rank (pJ)
system.mem_ctrls2.preEnergy::0              104944125                       # Energy for precharge commands per rank (pJ)
system.mem_ctrls2.preEnergy::1              104403750                       # Energy for precharge commands per rank (pJ)
system.mem_ctrls2.readEnergy::0             300495000                       # Energy for read commands per rank (pJ)
system.mem_ctrls2.readEnergy::1             294083400                       # Energy for read commands per rank (pJ)
system.mem_ctrls2.writeEnergy::0            195922800                       # Energy for write commands per rank (pJ)
system.mem_ctrls2.writeEnergy::1            197439120                       # Energy for write commands per rank (pJ)
system.mem_ctrls2.refreshEnergy::0         2480247120                       # Energy for refresh commands per rank (pJ)
system.mem_ctrls2.refreshEnergy::1         2480247120                       # Energy for refresh commands per rank (pJ)
system.mem_ctrls2.actBackEnergy::0        14922430425                       # Energy for active background per rank (pJ)
system.mem_ctrls2.actBackEnergy::1        14425907130                       # Energy for active background per rank (pJ)
system.mem_ctrls2.preBackEnergy::0         9694429500                       # Energy for precharge background per rank (pJ)
system.mem_ctrls2.preBackEnergy::1        10129976250                       # Energy for precharge background per rank (pJ)
system.mem_ctrls2.totalEnergy::0          27890802930                       # Total energy per rank (pJ)
system.mem_ctrls2.totalEnergy::1          27823400370                       # Total energy per rank (pJ)
system.mem_ctrls2.averagePower::0          734.474875                       # Core power per rank (mW)
system.mem_ctrls2.averagePower::1          732.699900                       # Core power per rank (mW)
system.mem_ctrls3.bytes_read::ruby.dir_cntrl3      4857984                       # Number of bytes read from this memory
system.mem_ctrls3.bytes_read::total           4857984                       # Number of bytes read from this memory
system.mem_ctrls3.bytes_written::ruby.dir_cntrl3      3879232                       # Number of bytes written to this memory
system.mem_ctrls3.bytes_written::total        3879232                       # Number of bytes written to this memory
system.mem_ctrls3.num_reads::ruby.dir_cntrl3        75906                       # Number of read requests responded to by this memory
system.mem_ctrls3.num_reads::total              75906                       # Number of read requests responded to by this memory
system.mem_ctrls3.num_writes::ruby.dir_cntrl3        60613                       # Number of write requests responded to by this memory
system.mem_ctrls3.num_writes::total             60613                       # Number of write requests responded to by this memory
system.mem_ctrls3.bw_read::ruby.dir_cntrl3    127907715                       # Total read bandwidth from this memory (bytes/s)
system.mem_ctrls3.bw_read::total            127907715                       # Total read bandwidth from this memory (bytes/s)
system.mem_ctrls3.bw_write::ruby.dir_cntrl3    102137780                       # Write bandwidth from this memory (bytes/s)
system.mem_ctrls3.bw_write::total           102137780                       # Write bandwidth from this memory (bytes/s)
system.mem_ctrls3.bw_total::ruby.dir_cntrl3    230045495                       # Total bandwidth to/from this memory (bytes/s)
system.mem_ctrls3.bw_total::total           230045495                       # Total bandwidth to/from this memory (bytes/s)
system.mem_ctrls3.readReqs                      75907                       # Number of read requests accepted
system.mem_ctrls3.writeReqs                     60613                       # Number of write requests accepted
system.mem_ctrls3.readBursts                    75907                       # Number of DRAM read bursts, including those serviced by the write queue
system.mem_ctrls3.writeBursts                   60613                       # Number of DRAM write bursts, including those merged in the write queue
system.mem_ctrls3.bytesReadDRAM               4857472                       # Total number of bytes read from DRAM
system.mem_ctrls3.bytesReadWrQ                    576                       # Total number of bytes read from write queue
system.mem_ctrls3.bytesWritten                3879104                       # Total number of bytes written to DRAM
system.mem_ctrls3.bytesReadSys                4858048                       # Total read bytes from the system interface side
system.mem_ctrls3.bytesWrittenSys             3879232                       # Total written bytes from the system interface side
system.mem_ctrls3.servicedByWrQ                     9                       # Number of DRAM read bursts serviced by the write queue
system.mem_ctrls3.mergedWrBursts                    0                       # Number of DRAM write bursts merged with an existing one
system.mem_ctrls3.neitherReadNorWriteReqs            0                       # Number of requests that are neither read nor write
system.mem_ctrls3.perBankRdBursts::0             4298                       # Per bank write bursts
system.mem_ctrls3.perBankRdBursts::1             4715                       # Per bank write bursts
system.mem_ctrls3.perBankRdBursts::2             4418                       # Per bank write bursts
system.mem_ctrls3.perBankRdBursts::3             4861                       # Per bank write bursts
system.mem_ctrls3.perBankRdBursts::4             4737                       # Per bank write bursts
system.mem_ctrls3.perBankRdBursts::5             5242                       # Per bank write bursts
system.mem_ctrls3.perBankRdBursts::6             4863                       # Per bank write bursts
system.mem_ctrls3.perBankRdBursts::7             5147                       # Per bank write bursts
system.mem_ctrls3.perBankRdBursts::8             4921                       # Per bank write bursts
system.mem_ctrls3.perBankRdBursts::9             5077                       # Per bank write bursts
system.mem_ctrls3.perBankRdBursts::10            4520                       # Per bank write bursts
system.mem_ctrls3.perBankRdBursts::11            4731                       # Per bank write bursts
system.mem_ctrls3.perBankRdBursts::12            4482                       # Per bank write bursts
system.mem_ctrls3.perBankRdBursts::13            4517                       # Per bank write bursts
system.mem_ctrls3.perBankRdBursts::14            4641                       # Per bank write bursts
system.mem_ctrls3.perBankRdBursts::15            4728                       # Per bank write bursts
system.mem_ctrls3.perBankWrBursts::0             3555                       # Per bank write bursts
system.mem_ctrls3.perBankWrBursts::1             3502                       # Per bank write bursts
system.mem_ctrls3.perBankWrBursts::2             3566                       # Per bank write bursts
system.mem_ctrls3.perBankWrBursts::3             3718                       # Per bank write bursts
system.mem_ctrls3.perBankWrBursts::4             3786                       # Per bank write bursts
system.mem_ctrls3.perBankWrBursts::5             4102                       # Per bank write bursts
system.mem_ctrls3.perBankWrBursts::6             3839                       # Per bank write bursts
system.mem_ctrls3.perBankWrBursts::7             4097                       # Per bank write bursts
system.mem_ctrls3.perBankWrBursts::8             3970                       # Per bank write bursts
system.mem_ctrls3.perBankWrBursts::9             4037                       # Per bank write bursts
system.mem_ctrls3.perBankWrBursts::10            3605                       # Per bank write bursts
system.mem_ctrls3.perBankWrBursts::11            3581                       # Per bank write bursts
system.mem_ctrls3.perBankWrBursts::12            3716                       # Per bank write bursts
system.mem_ctrls3.perBankWrBursts::13            3823                       # Per bank write bursts
system.mem_ctrls3.perBankWrBursts::14            3890                       # Per bank write bursts
system.mem_ctrls3.perBankWrBursts::15            3824                       # Per bank write bursts
system.mem_ctrls3.numRdRetry                        6                       # Number of times read queue was full causing retry
system.mem_ctrls3.numWrRetry                      119                       # Number of times write queue was full causing retry
system.mem_ctrls3.totGap                  37979641000                       # Total gap between requests
system.mem_ctrls3.readPktSize::0                    0                       # Read request sizes (log2)
system.mem_ctrls3.readPktSize::1                    0                       # Read request sizes (log2)
system.mem_ctrls3.readPktSize::2                    0                       # Read request sizes (log2)
system.mem_ctrls3.readPktSize::3                    0                       # Read request sizes (log2)
system.mem_ctrls3.readPktSize::4                    0                       # Read request sizes (log2)
system.mem_ctrls3.readPktSize::5                    0                       # Read request sizes (log2)
system.mem_ctrls3.readPktSize::6                75907                       # Read request sizes (log2)
system.mem_ctrls3.writePktSize::0                   0                       # Write request sizes (log2)
system.mem_ctrls3.writePktSize::1                   0                       # Write request sizes (log2)
system.mem_ctrls3.writePktSize::2                   0                       # Write request sizes (log2)
system.mem_ctrls3.writePktSize::3                   0                       # Write request sizes (log2)
system.mem_ctrls3.writePktSize::4                   0                       # Write request sizes (log2)
system.mem_ctrls3.writePktSize::5                   0                       # Write request sizes (log2)
system.mem_ctrls3.writePktSize::6               60613                       # Write request sizes (log2)
system.mem_ctrls3.rdQLenPdf::0                  58985                       # What read queue length does an incoming req see
system.mem_ctrls3.rdQLenPdf::1                  10262                       # What read queue length does an incoming req see
system.mem_ctrls3.rdQLenPdf::2                   3260                       # What read queue length does an incoming req see
system.mem_ctrls3.rdQLenPdf::3                   1364                       # What read queue length does an incoming req see
system.mem_ctrls3.rdQLenPdf::4                    703                       # What read queue length does an incoming req see
system.mem_ctrls3.rdQLenPdf::5                    431                       # What read queue length does an incoming req see
system.mem_ctrls3.rdQLenPdf::6                    265                       # What read queue length does an incoming req see
system.mem_ctrls3.rdQLenPdf::7                    167                       # What read queue length does an incoming req see
system.mem_ctrls3.rdQLenPdf::8                     92                       # What read queue length does an incoming req see
system.mem_ctrls3.rdQLenPdf::9                     64                       # What read queue length does an incoming req see
system.mem_ctrls3.rdQLenPdf::10                    46                       # What read queue length does an incoming req see
system.mem_ctrls3.rdQLenPdf::11                    42                       # What read queue length does an incoming req see
system.mem_ctrls3.rdQLenPdf::12                    40                       # What read queue length does an incoming req see
system.mem_ctrls3.rdQLenPdf::13                    28                       # What read queue length does an incoming req see
system.mem_ctrls3.rdQLenPdf::14                    25                       # What read queue length does an incoming req see
system.mem_ctrls3.rdQLenPdf::15                    26                       # What read queue length does an incoming req see
system.mem_ctrls3.rdQLenPdf::16                    22                       # What read queue length does an incoming req see
system.mem_ctrls3.rdQLenPdf::17                    12                       # What read queue length does an incoming req see
system.mem_ctrls3.rdQLenPdf::18                    14                       # What read queue length does an incoming req see
system.mem_ctrls3.rdQLenPdf::19                     7                       # What read queue length does an incoming req see
system.mem_ctrls3.rdQLenPdf::20                     5                       # What read queue length does an incoming req see
system.mem_ctrls3.rdQLenPdf::21                     5                       # What read queue length does an incoming req see
system.mem_ctrls3.rdQLenPdf::22                     5                       # What read queue length does an incoming req see
system.mem_ctrls3.rdQLenPdf::23                     5                       # What read queue length does an incoming req see
system.mem_ctrls3.rdQLenPdf::24                     8                       # What read queue length does an incoming req see
[...]
system.ruby.L2Cache_Controller.MT_IIB.WB_Data_clean::total        22816                      
system.ruby.L2Cache_Controller.MT_IIB.Unblock |          44      0.72%      0.72% |          94      1.54%      2.26% |         172      2.82%      5.08% |         224      3.67%      8.75% |         102      1.67%     10.42% |         208      3.41%     13.82% |         217      3.55%     17.38% |         249      4.08%     21.45% |         293      4.80%     26.25% |         235      3.85%     30.10% |         172      2.82%     32.92% |         237      3.88%     36.80% |         163      2.67%     39.47% |         226      3.70%     43.17% |         150      2.46%     45.63% |         111      1.82%     47.45% |         192      3.14%     50.59% |         208      3.41%     54.00% |         209      3.42%     57.42% |         204      3.34%     60.76% |         285      4.67%     65.43% |         211      3.46%     68.88% |         161      2.64%     71.52% |         148      2.42%     73.94% |         233      3.82%     77.76% |         166      2.72%     80.48% |         209      3.42%     83.90% |         227      3.72%     87.62% |         133      2.18%     89.80% |         272      4.45%     94.25% |         137      2.24%     96.50% |         214      3.50%    100.00%
system.ruby.L2Cache_Controller.MT_IIB.Unblock::total         6106                      
system.ruby.L2Cache_Controller.MT_IB.L1_GETS |           0      0.00%      0.00% |           0      0.00%      0.00% |           0      0.00%      0.00% |           1     20.00%     20.00% |           0      0.00%     20.00% |           0      0.00%     20.00% |           0      0.00%     20.00% |           0      0.00%     20.00% |           0      0.00%     20.00% |           0      0.00%     20.00% |           0      0.00%     20.00% |           2     40.00%     60.00% |           0      0.00%     60.00% |           0      0.00%     60.00% |           0      0.00%     60.00% |           0      0.00%     60.00% |           0      0.00%     60.00% |           0      0.00%     60.00% |           0      0.00%     60.00% |           0      0.00%     60.00% |           0      0.00%     60.00% |           0      0.00%     60.00% |           0      0.00%     60.00% |           0      0.00%     60.00% |           0      0.00%     60.00% |           0      0.00%     60.00% |           1     20.00%     80.00% |           0      0.00%     80.00% |           0      0.00%     80.00% |           1     20.00%    100.00% |           0      0.00%    100.00% |           0      0.00%    100.00%
system.ruby.L2Cache_Controller.MT_IB.L1_GETS::total            5                      
system.ruby.L2Cache_Controller.MT_IB.L1_GETX |           0      0.00%      0.00% |           0      0.00%      0.00% |           0      0.00%      0.00% |           0      0.00%      0.00% |           0      0.00%      0.00% |           0      0.00%      0.00% |           0      0.00%      0.00% |           0      0.00%      0.00% |           0      0.00%      0.00% |           0      0.00%      0.00% |           0      0.00%      0.00% |           0      0.00%      0.00% |           0      0.00%      0.00% |           0      0.00%      0.00% |           0      0.00%      0.00% |           0      0.00%      0.00% |           0      0.00%      0.00% |           0      0.00%      0.00% |           0      0.00%      0.00% |           0      0.00%      0.00% |           0      0.00%      0.00% |           0      0.00%      0.00% |           0      0.00%      0.00% |           0      0.00%      0.00% |           0      0.00%      0.00% |           1     50.00%     50.00% |           1     50.00%    100.00% |           0      0.00%    100.00% |           0      0.00%    100.00% |           0      0.00%    100.00% |           0      0.00%    100.00% |           0      0.00%    100.00%
system.ruby.L2Cache_Controller.MT_IB.L1_GETX::total            2                      
system.ruby.L2Cache_Controller.MT_IB.L1_UPGRADE |           0      0.00%      0.00% |           0      0.00%      0.00% |           1     16.67%     16.67% |           1     16.67%     33.33% |           0      0.00%     33.33% |           0      0.00%     33.33% |           0      0.00%     33.33% |           0      0.00%     33.33% |           0      0.00%     33.33% |           0      0.00%     33.33% |           0      0.00%     33.33% |           0      0.00%     33.33% |           0      0.00%     33.33% |           0      0.00%     33.33% |           0      0.00%     33.33% |           0      0.00%     33.33% |           0      0.00%     33.33% |           0      0.00%     33.33% |           1     16.67%     50.00% |           1     16.67%     66.67% |           1     16.67%     83.33% |           0      0.00%     83.33% |           1     16.67%    100.00% |           0      0.00%    100.00% |           0      0.00%    100.00% |           0      0.00%    100.00% |           0      0.00%    100.00% |           0      0.00%    100.00% |           0      0.00%    100.00% |           0      0.00%    100.00% |           0      0.00%    100.00% |           0      0.00%    100.00%
system.ruby.L2Cache_Controller.MT_IB.L1_UPGRADE::total            6                      
system.ruby.L2Cache_Controller.MT_IB.WB_Data |          44      0.77%      0.77% |          90      1.57%      2.33% |         167      2.91%      5.24% |         210      3.65%      8.89% |          96      1.67%     10.56% |         194      3.38%     13.94% |         209      3.64%     17.57% |         233      4.05%     21.62% |         276      4.80%     26.43% |         228      3.97%     30.39% |         159      2.77%     33.16% |         220      3.83%     36.99% |         152      2.64%     39.63% |         215      3.74%     43.37% |         141      2.45%     45.82% |         100      1.74%     47.56% |         179      3.11%     50.68% |         194      3.38%     54.05% |         199      3.46%     57.52% |         189      3.29%     60.80% |         262      4.56%     65.36% |         200      3.48%     68.84% |         146      2.54%     71.38% |         141      2.45%     73.83% |         225      3.91%     77.75% |         152      2.64%     80.39% |         195      3.39%     83.79% |         218      3.79%     87.58% |         122      2.12%     89.70% |         257      4.47%     94.17% |         134      2.33%     96.50% |         201      3.50%    100.00%
system.ruby.L2Cache_Controller.MT_IB.WB_Data::total         5748                      
system.ruby.L2Cache_Controller.MT_IB.WB_Data_clean |           0      0.00%      0.00% |           4      1.12%      1.12% |           5      1.40%      2.51% |          14      3.91%      6.42% |           6      1.68%      8.10% |          14      3.91%     12.01% |           8      2.23%     14.25% |          16      4.47%     18.72% |          17      4.75%     23.46% |           7      1.96%     25.42% |          13      3.63%     29.05% |          17      4.75%     33.80% |          11      3.07%     36.87% |          11      3.07%     39.94% |           9      2.51%     42.46% |          11      3.07%     45.53% |          13      3.63%     49.16% |          14      3.91%     53.07% |          10      2.79%     55.87% |          15      4.19%     60.06% |          23      6.42%     66.48% |          11      3.07%     69.55% |          15      4.19%     73.74% |           7      1.96%     75.70% |           8      2.23%     77.93% |          14      3.91%     81.84% |          14      3.91%     85.75% |           9      2.51%     88.27% |          11      3.07%     91.34% |          15      4.19%     95.53% |           3      0.84%     96.37% |          13      3.63%    100.00%
system.ruby.L2Cache_Controller.MT_IB.WB_Data_clean::total          358                      
system.ruby.L2Cache_Controller.MT_SB.L1_GETS |          27      2.80%      2.80% |          37      3.83%      6.63% |          29      3.00%      9.63% |          24      2.48%     12.11% |          33      3.42%     15.53% |          31      3.21%     18.74% |          22      2.28%     21.01% |          27      2.80%     23.81% |          28      2.90%     26.71% |          21      2.17%     28.88% |          27      2.80%     31.68% |          18      1.86%     33.54% |          28      2.90%     36.44% |          36      3.73%     40.17% |          25      2.59%     42.75% |          27      2.80%     45.55% |          30      3.11%     48.65% |          31      3.21%     51.86% |          38      3.93%     55.80% |          32      3.31%     59.11% |          29      3.00%     62.11% |          31      3.21%     65.32% |          41      4.24%     69.57% |          31      3.21%     72.77% |          34      3.52%     76.29% |          37      3.83%     80.12% |          29      3.00%     83.13% |          36      3.73%     86.85% |          43      4.45%     91.30% |          26      2.69%     94.00% |          32      3.31%     97.31% |          26      2.69%    100.00%
system.ruby.L2Cache_Controller.MT_SB.L1_GETS::total          966                      
system.ruby.L2Cache_Controller.MT_SB.L1_GETX |          17      4.18%      4.18% |          14      3.44%      7.62% |           8      1.97%      9.58% |          11      2.70%     12.29% |          13      3.19%     15.48% |          10      2.46%     17.94% |          14      3.44%     21.38% |           9      2.21%     23.59% |          17      4.18%     27.76% |          23      5.65%     33.42% |          16      3.93%     37.35% |          14      3.44%     40.79% |           8      1.97%     42.75% |          10      2.46%     45.21% |          10      2.46%     47.67% |           9      2.21%     49.88% |          13      3.19%     53.07% |          21      5.16%     58.23% |          12      2.95%     61.18% |           6      1.47%     62.65% |          15      3.69%     66.34% |          10      2.46%     68.80% |           8      1.97%     70.76% |          18      4.42%     75.18% |          10      2.46%     77.64% |          12      2.95%     80.59% |          15      3.69%     84.28% |          19      4.67%     88.94% |           9      2.21%     91.15% |          13      3.19%     94.35% |          10      2.46%     96.81% |          13      3.19%    100.00%
system.ruby.L2Cache_Controller.MT_SB.L1_GETX::total          407                      
system.ruby.L2Cache_Controller.MT_SB.L1_UPGRADE |           9      3.03%      3.03% |          15      5.05%      8.08% |           7      2.36%     10.44% |          10      3.37%     13.80% |          11      3.70%     17.51% |          11      3.70%     21.21% |           6      2.02%     23.23% |           8      2.69%     25.93% |          10      3.37%     29.29% |           5      1.68%     30.98% |           9      3.03%     34.01% |           9      3.03%     37.04% |           8      2.69%     39.73% |          10      3.37%     43.10% |          11      3.70%     46.80% |          15      5.05%     51.85% |           8      2.69%     54.55% |          11      3.70%     58.25% |          12      4.04%     62.29% |           9      3.03%     65.32% |           6      2.02%     67.34% |           8      2.69%     70.03% |          12      4.04%     74.07% |           9      3.03%     77.10% |          15      5.05%     82.15% |           8      2.69%     84.85% |           5      1.68%     86.53% |           7      2.36%     88.89% |           8      2.69%     91.58% |           8      2.69%     94.28% |          11      3.70%     97.98% |           6      2.02%    100.00%
system.ruby.L2Cache_Controller.MT_SB.L1_UPGRADE::total          297                      
system.ruby.L2Cache_Controller.MT_SB.L1_PUTX |           0      0.00%      0.00% |           0      0.00%      0.00% |           0      0.00%      0.00% |           0      0.00%      0.00% |           0      0.00%      0.00% |           1    100.00%    100.00% |           0      0.00%    100.00% |           0      0.00%    100.00% |           0      0.00%    100.00% |           0      0.00%    100.00% |           0      0.00%    100.00% |           0      0.00%    100.00% |           0      0.00%    100.00% |           0      0.00%    100.00% |           0      0.00%    100.00% |           0      0.00%    100.00% |           0      0.00%    100.00% |           0      0.00%    100.00% |           0      0.00%    100.00% |           0      0.00%    100.00% |           0      0.00%    100.00% |           0      0.00%    100.00% |           0      0.00%    100.00% |           0      0.00%    100.00% |           0      0.00%    100.00% |           0      0.00%    100.00% |           0      0.00%    100.00% |           0      0.00%    100.00% |           0      0.00%    100.00% |           0      0.00%    100.00% |           0      0.00%    100.00% |           0      0.00%    100.00%
system.ruby.L2Cache_Controller.MT_SB.L1_PUTX::total            1                      
system.ruby.L2Cache_Controller.MT_SB.Unblock |        7646      3.26%      3.26% |        7360      3.14%      6.40% |        7260      3.10%      9.50% |        7269      3.10%     12.60% |        7613      3.25%     15.85% |        7307      3.12%     18.97% |        7246      3.09%     22.06% |        7210      3.08%     25.13% |        7365      3.14%     28.27% |        7298      3.11%     31.39% |        7297      3.11%     34.50% |        7230      3.08%     37.59% |        7440      3.17%     40.76% |        7240      3.09%     43.85% |        7385      3.15%     47.00% |        7368      3.14%     50.14% |        7425      3.17%     53.31% |        7261      3.10%     56.41% |        7286      3.11%     59.52% |        7246      3.09%     62.61% |        7340      3.13%     65.74% |        7188      3.07%     68.81% |        7350      3.14%     71.94% |        7381      3.15%     75.09% |        7375      3.15%     78.24% |        7216      3.08%     81.31% |        7234      3.09%     84.40% |        7225      3.08%     87.48% |        7539      3.22%     90.70% |        7180      3.06%     93.76% |        7325      3.12%     96.89% |        7295      3.11%    100.00%
system.ruby.L2Cache_Controller.MT_SB.Unblock::total       234400                      
system.ruby.SimicsNetworkPortInterface_Controller.MessageSend |      308630     17.96%     17.96% |      859029     50.00%     67.96% |       68407      3.98%     71.95% |       74103      4.31%     76.26% |       68473      3.99%     80.24% |       74351      4.33%     84.57% |       68464      3.98%     88.56% |       75411      4.39%     92.95% |       59227      3.45%     96.39% |       61963      3.61%    100.00% |           0      0.00%    100.00% |           0      0.00%    100.00% |           0      0.00%    100.00% |           0      0.00%    100.00% |           0      0.00%    100.00% |           0      0.00%    100.00% |           0      0.00%    100.00% |           0      0.00%    100.00% |           0      0.00%    100.00% |           0      0.00%    100.00% |           0      0.00%    100.00% |           0      0.00%    100.00% |           0      0.00%    100.00% |           0      0.00%    100.00% |           0      0.00%    100.00% |           0      0.00%    100.00% |           0      0.00%    100.00% |           0      0.00%    100.00% |           0      0.00%    100.00% |           0      0.00%    100.00% |           0      0.00%    100.00% |           0      0.00%    100.00%
system.ruby.SimicsNetworkPortInterface_Controller.MessageSend::total      1718058                      
system.ruby.SimicsNetworkPortInterface_Controller.MessageRecv |      308630     17.96%     17.96% |      859029     50.00%     67.96% |       68407      3.98%     71.95% |       74103      4.31%     76.26% |       68473      3.99%     80.24% |       74351      4.33%     84.57% |       68464      3.98%     88.56% |       75411      4.39%     92.95% |       59227      3.45%     96.39% |       61963      3.61%    100.00% |           0      0.00%    100.00% |           0      0.00%    100.00% |           0      0.00%    100.00% |           0      0.00%    100.00% |           0      0.00%    100.00% |           0      0.00%    100.00% |           0      0.00%    100.00% |           0      0.00%    100.00% |           0      0.00%    100.00% |           0      0.00%    100.00% |           0      0.00%    100.00% |           0      0.00%    100.00% |           0      0.00%    100.00% |           0      0.00%    100.00% |           0      0.00%    100.00% |           0      0.00%    100.00% |           0      0.00%    100.00% |           0      0.00%    100.00% |           0      0.00%    100.00% |           0      0.00%    100.00% |           0      0.00%    100.00% |           0      0.00%    100.00%
system.ruby.SimicsNetworkPortInterface_Controller.MessageRecv::total      1718058                      
system.ruby.SimicsNetworkPortInterface_Controller.A.MessageSend |      308630     17.96%     17.96% |      859029     50.00%     67.96% |       68407      3.98%     71.95% |       74103      4.31%     76.26% |       68473      3.99%     80.24% |       74351      4.33%     84.57% |       68464      3.98%     88.56% |       75411      4.39%     92.95% |       59227      3.45%     96.39% |       61963      3.61%    100.00% |           0      0.00%    100.00% |           0      0.00%    100.00% |           0      0.00%    100.00% |           0      0.00%    100.00% |           0      0.00%    100.00% |           0      0.00%    100.00% |           0      0.00%    100.00% |           0      0.00%    100.00% |           0      0.00%    100.00% |           0      0.00%    100.00% |           0      0.00%    100.00% |           0      0.00%    100.00% |           0      0.00%    100.00% |           0      0.00%    100.00% |           0      0.00%    100.00% |           0      0.00%    100.00% |           0      0.00%    100.00% |           0      0.00%    100.00% |           0      0.00%    100.00% |           0      0.00%    100.00% |           0      0.00%    100.00% |           0      0.00%    100.00%
system.ruby.SimicsNetworkPortInterface_Controller.A.MessageSend::total      1718058                      
system.ruby.SimicsNetworkPortInterface_Controller.A.MessageRecv |      308630     17.96%     17.96% |      859029     50.00%     67.96% |       68407      3.98%     71.95% |       74103      4.31%     76.26% |       68473      3.99%     80.24% |       74351      4.33%     84.57% |       68464      3.98%     88.56% |       75411      4.39%     92.95% |       59227      3.45%     96.39% |       61963      3.61%    100.00% |           0      0.00%    100.00% |           0      0.00%    100.00% |           0      0.00%    100.00% |           0      0.00%    100.00% |           0      0.00%    100.00% |           0      0.00%    100.00% |           0      0.00%    100.00% |           0      0.00%    100.00% |           0      0.00%    100.00% |           0      0.00%    100.00% |           0      0.00%    100.00% |           0      0.00%    100.00% |           0      0.00%    100.00% |           0      0.00%    100.00% |           0      0.00%    100.00% |           0      0.00%    100.00% |           0      0.00%    100.00% |           0      0.00%    100.00% |           0      0.00%    100.00% |           0      0.00%    100.00% |           0      0.00%    100.00% |           0      0.00%    100.00%
system.ruby.SimicsNetworkPortInterface_Controller.A.MessageRecv::total      1718058                      
system.switch_cpus.kern.inst.arm                    0                       # number of arm instructions executed
system.switch_cpus.kern.inst.quiesce                0                       # number of quiesce instructions executed

---------- End Simulation Statistics   ----------
