
---------- Begin Simulation Statistics ----------
sim_seconds                                  0.068425                       # Number of seconds simulated
sim_ticks                                 68425043500                       # Number of ticks simulated
final_tick                               5244593122000                       # Number of ticks from beginning of simulation (restored from checkpoints and never reset)
sim_freq                                 1000000000000                       # Frequency of simulated ticks
host_inst_rate                                  54937                       # Simulator instruction rate (inst/s)
host_op_rate                                    95056                       # Simulator op (including micro ops) rate (op/s)
host_tick_rate                               74268594                       # Simulator tick rate (ticks/s)
host_mem_usage                                4830692                       # Number of bytes of host memory used
host_seconds                                   921.32                       # Real time elapsed on the host
sim_insts                                    50614576                       # Number of instructions simulated
sim_ops                                      87577238                       # Number of ops (including micro ops) simulated
system.voltage_domain.voltage                       1                       # Voltage in Volts
system.clk_domain.clock                           500                       # Clock period in ticks
system.mem_ctrls0.bytes_read::ruby.dir_cntrl0     14043136                       # Number of bytes read from this memory
system.mem_ctrls0.bytes_read::total          14043136                       # Number of bytes read from this memory
system.mem_ctrls0.bytes_written::ruby.dir_cntrl0      4009280                       # Number of bytes written to this memory
system.mem_ctrls0.bytes_written::total        4009280                       # Number of bytes written to this memory
system.mem_ctrls0.num_reads::ruby.dir_cntrl0       219424                       # Number of read requests responded to by this memory
system.mem_ctrls0.num_reads::total             219424                       # Number of read requests responded to by this memory
system.mem_ctrls0.num_writes::ruby.dir_cntrl0        62645                       # Number of write requests responded to by this memory
system.mem_ctrls0.num_writes::total             62645                       # Number of write requests responded to by this memory
system.mem_ctrls0.bw_read::ruby.dir_cntrl0    205233863                       # Total read bandwidth from this memory (bytes/s)
system.mem_ctrls0.bw_read::total            205233863                       # Total read bandwidth from this memory (bytes/s)
system.mem_ctrls0.bw_write::ruby.dir_cntrl0     58593752                       # Write bandwidth from this memory (bytes/s)
system.mem_ctrls0.bw_write::total            58593752                       # Write bandwidth from this memory (bytes/s)
system.mem_ctrls0.bw_total::ruby.dir_cntrl0    263827615                       # Total bandwidth to/from this memory (bytes/s)
system.mem_ctrls0.bw_total::total           263827615                       # Total bandwidth to/from this memory (bytes/s)
system.mem_ctrls0.readReqs                     219424                       # Number of read requests accepted
system.mem_ctrls0.writeReqs                     62645                       # Number of write requests accepted
system.mem_ctrls0.readBursts                   219424                       # Number of DRAM read bursts, including those serviced by the write queue
system.mem_ctrls0.writeBursts                   62645                       # Number of DRAM write bursts, including those merged in the write queue
system.mem_ctrls0.bytesReadDRAM              14041472                       # Total number of bytes read from DRAM
system.mem_ctrls0.bytesReadWrQ                   1664                       # Total number of bytes read from write queue
system.mem_ctrls0.bytesWritten                4009088                       # Total number of bytes written to DRAM
system.mem_ctrls0.bytesReadSys               14043136                       # Total read bytes from the system interface side
system.mem_ctrls0.bytesWrittenSys             4009280                       # Total written bytes from the system interface side
system.mem_ctrls0.servicedByWrQ                    26                       # Number of DRAM read bursts serviced by the write queue
system.mem_ctrls0.mergedWrBursts                    0                       # Number of DRAM write bursts merged with an existing one
system.mem_ctrls0.neitherReadNorWriteReqs            0                       # Number of requests that are neither read nor write
system.mem_ctrls0.perBankRdBursts::0            13466                       # Per bank write bursts
system.mem_ctrls0.perBankRdBursts::1            14016                       # Per bank write bursts
system.mem_ctrls0.perBankRdBursts::2            13693                       # Per bank write bursts
system.mem_ctrls0.perBankRdBursts::3            14063                       # Per bank write bursts
system.mem_ctrls0.perBankRdBursts::4            13711                       # Per bank write bursts
system.mem_ctrls0.perBankRdBursts::5            14269                       # Per bank write bursts
system.mem_ctrls0.perBankRdBursts::6            13745                       # Per bank write bursts
system.mem_ctrls0.perBankRdBursts::7            13687                       # Per bank write bursts
system.mem_ctrls0.perBankRdBursts::8            13581                       # Per bank write bursts
system.mem_ctrls0.perBankRdBursts::9            13904                       # Per bank write bursts
system.mem_ctrls0.perBankRdBursts::10           13620                       # Per bank write bursts
system.mem_ctrls0.perBankRdBursts::11           13840                       # Per bank write bursts
system.mem_ctrls0.perBankRdBursts::12           13385                       # Per bank write bursts
system.mem_ctrls0.perBankRdBursts::13           13273                       # Per bank write bursts
system.mem_ctrls0.perBankRdBursts::14           13570                       # Per bank write bursts
system.mem_ctrls0.perBankRdBursts::15           13575                       # Per bank write bursts
system.mem_ctrls0.perBankWrBursts::0             3851                       # Per bank write bursts
system.mem_ctrls0.perBankWrBursts::1             3929                       # Per bank write bursts
system.mem_ctrls0.perBankWrBursts::2             3908                       # Per bank write bursts
system.mem_ctrls0.perBankWrBursts::3             4132                       # Per bank write bursts
system.mem_ctrls0.perBankWrBursts::4             3923                       # Per bank write bursts
system.mem_ctrls0.perBankWrBursts::5             4076                       # Per bank write bursts
system.mem_ctrls0.perBankWrBursts::6             3985                       # Per bank write bursts
system.mem_ctrls0.perBankWrBursts::7             3957                       # Per bank write bursts
system.mem_ctrls0.perBankWrBursts::8             3819                       # Per bank write bursts
system.mem_ctrls0.perBankWrBursts::9             4075                       # Per bank write bursts
system.mem_ctrls0.perBankWrBursts::10            3837                       # Per bank write bursts
system.mem_ctrls0.perBankWrBursts::11            3781                       # Per bank write bursts
system.mem_ctrls0.perBankWrBursts::12            3724                       # Per bank write bursts
system.mem_ctrls0.perBankWrBursts::13            3762                       # Per bank write bursts
system.mem_ctrls0.perBankWrBursts::14            4014                       # Per bank write bursts
system.mem_ctrls0.perBankWrBursts::15            3869                       # Per bank write bursts
system.mem_ctrls0.numRdRetry                      227                       # Number of times read queue was full causing retry
system.mem_ctrls0.numWrRetry                      149                       # Number of times write queue was full causing retry
system.mem_ctrls0.totGap                  68424551500                       # Total gap between requests
system.mem_ctrls0.readPktSize::0                    0                       # Read request sizes (log2)
system.mem_ctrls0.readPktSize::1                    0                       # Read request sizes (log2)
system.mem_ctrls0.readPktSize::2                    0                       # Read request sizes (log2)
system.mem_ctrls0.readPktSize::3                    0                       # Read request sizes (log2)
system.mem_ctrls0.readPktSize::4                    0                       # Read request sizes (log2)
system.mem_ctrls0.readPktSize::5                    0                       # Read request sizes (log2)
system.mem_ctrls0.readPktSize::6               219424                       # Read request sizes (log2)
system.mem_ctrls0.writePktSize::0                   0                       # Write request sizes (log2)
system.mem_ctrls0.writePktSize::1                   0                       # Write request sizes (log2)
system.mem_ctrls0.writePktSize::2                   0                       # Write request sizes (log2)
system.mem_ctrls0.writePktSize::3                   0                       # Write request sizes (log2)
system.mem_ctrls0.writePktSize::4                   0                       # Write request sizes (log2)
system.mem_ctrls0.writePktSize::5                   0                       # Write request sizes (log2)
system.mem_ctrls0.writePktSize::6               62645                       # Write request sizes (log2)
system.mem_ctrls0.rdQLenPdf::0                 194363                       # What read queue length does an incoming req see
system.mem_ctrls0.rdQLenPdf::1                  22352                       # What read queue length does an incoming req see
system.mem_ctrls0.rdQLenPdf::2                   1701                       # What read queue length does an incoming req see
system.mem_ctrls0.rdQLenPdf::3                    127                       # What read queue length does an incoming req see
system.mem_ctrls0.rdQLenPdf::4                     70                       # What read queue length does an incoming req see
system.mem_ctrls0.rdQLenPdf::5                     56                       # What read queue length does an incoming req see
system.mem_ctrls0.rdQLenPdf::6                     45                       # What read queue length does an incoming req see
system.mem_ctrls0.rdQLenPdf::7                     35                       # What read queue length does an incoming req see
system.mem_ctrls0.rdQLenPdf::8                     25                       # What read queue length does an incoming req see
system.mem_ctrls0.rdQLenPdf::9                     27                       # What read queue length does an incoming req see
system.mem_ctrls0.rdQLenPdf::10                    23                       # What read queue length does an incoming req see
system.mem_ctrls0.rdQLenPdf::11                    25                       # What read queue length does an incoming req see
system.mem_ctrls0.rdQLenPdf::12                    17                       # What read queue length does an incoming req see
system.mem_ctrls0.rdQLenPdf::13                    16                       # What read queue length does an incoming req see
system.mem_ctrls0.rdQLenPdf::14                    11                       # What read queue length does an incoming req see
system.mem_ctrls0.rdQLenPdf::15                    10                       # What read queue length does an incoming req see
system.mem_ctrls0.rdQLenPdf::16                    18                       # What read queue length does an incoming req see
system.mem_ctrls0.rdQLenPdf::17                    12                       # What read queue length does an incoming req see
system.mem_ctrls0.rdQLenPdf::18                    13                       # What read queue length does an incoming req see
system.mem_ctrls0.rdQLenPdf::19                    10                       # What read queue length does an incoming req see
system.mem_ctrls0.rdQLenPdf::20                    10                       # What read queue length does an incoming req see
system.mem_ctrls0.rdQLenPdf::21                     8                       # What read queue length does an incoming req see
system.mem_ctrls0.rdQLenPdf::22                    12                       # What read queue length does an incoming req see
system.mem_ctrls0.rdQLenPdf::23                    16                       # What read queue length does an incoming req see
system.mem_ctrls0.rdQLenPdf::24                    16                       # What read queue length does an incoming req see
system.mem_ctrls0.rdQLenPdf::25                    11                       # What read queue length does an incoming req see
system.mem_ctrls0.rdQLenPdf::26                    11                       # What read queue length does an incoming req see
system.mem_ctrls0.rdQLenPdf::27                    18                       # What read queue length does an incoming req see
system.mem_ctrls0.rdQLenPdf::28                    14                       # What read queue length does an incoming req see
system.mem_ctrls0.rdQLenPdf::29                    22                       # What read queue length does an incoming req see
system.mem_ctrls0.rdQLenPdf::30                    36                       # What read queue length does an incoming req see
system.mem_ctrls0.rdQLenPdf::31                   268                       # What read queue length does an incoming req see
system.mem_ctrls0.wrQLenPdf::0                  12360                       # What write queue length does an incoming req see
system.mem_ctrls0.wrQLenPdf::1                  12486                       # What write queue length does an incoming req see
system.mem_ctrls0.wrQLenPdf::2                  12476                       # What write queue length does an incoming req see
system.mem_ctrls0.wrQLenPdf::3                  12438                       # What write queue length does an incoming req see
system.mem_ctrls0.wrQLenPdf::4                  12434                       # What write queue length does an incoming req see
system.mem_ctrls0.wrQLenPdf::5                    139                       # What write queue length does an incoming req see
system.mem_ctrls0.wrQLenPdf::6                     91                       # What write queue length does an incoming req see
system.mem_ctrls0.wrQLenPdf::7                    221                       # What write queue length does an incoming req see
system.mem_ctrls0.bytesPerActivate::samples        68704                       # Bytes accessed per row activation
system.mem_ctrls0.bytesPerActivate::mean   262.716348                       # Bytes accessed per row activation
system.mem_ctrls0.bytesPerActivate::gmean   172.342378                       # Bytes accessed per row activation
system.mem_ctrls0.bytesPerActivate::stdev   269.700587                       # Bytes accessed per row activation
system.mem_ctrls0.bytesPerActivate::0-127        22720     33.07%     33.07% # Bytes accessed per row activation
system.mem_ctrls0.bytesPerActivate::128-255        18503     26.93%     60.00% # Bytes accessed per row activation
system.mem_ctrls0.bytesPerActivate::256-383        15008     21.84%     81.85% # Bytes accessed per row activation
system.mem_ctrls0.bytesPerActivate::384-511         2692      3.92%     85.76% # Bytes accessed per row activation
system.mem_ctrls0.bytesPerActivate::512-639         1863      2.71%     88.48% # Bytes accessed per row activation
system.mem_ctrls0.bytesPerActivate::640-767         1249      1.82%     90.29% # Bytes accessed per row activation
system.mem_ctrls0.bytesPerActivate::768-895         1153      1.68%     91.97% # Bytes accessed per row activation
system.mem_ctrls0.bytesPerActivate::896-1023          931      1.36%     93.33% # Bytes accessed per row activation
system.mem_ctrls0.bytesPerActivate::1024-1151         4585      6.67%    100.00% # Bytes accessed per row activation
system.mem_ctrls0.bytesPerActivate::total        68704                       # Bytes accessed per row activation
system.mem_ctrls0.rdPerTurnAround::samples        12380                       # Reads before turning the bus around for writes
system.mem_ctrls0.rdPerTurnAround::mean     17.550162                       # Reads before turning the bus around for writes
system.mem_ctrls0.rdPerTurnAround::stdev    78.625947                       # Reads before turning the bus around for writes
system.mem_ctrls0.rdPerTurnAround::0-127        12017     97.07%     97.07% # Reads before turning the bus around for writes
system.mem_ctrls0.rdPerTurnAround::128-255          167      1.35%     98.42% # Reads before turning the bus around for writes
system.mem_ctrls0.rdPerTurnAround::256-383           85      0.69%     99.10% # Reads before turning the bus around for writes
system.mem_ctrls0.rdPerTurnAround::384-511           38      0.31%     99.41% # Reads before turning the bus around for writes
system.mem_ctrls0.rdPerTurnAround::512-639           51      0.41%     99.82% # Reads before turning the bus around for writes
system.mem_ctrls0.rdPerTurnAround::640-767            4      0.03%     99.85% # Reads before turning the bus around for writes
system.mem_ctrls0.rdPerTurnAround::768-895            6      0.05%     99.90% # Reads before turning the bus around for writes
system.mem_ctrls0.rdPerTurnAround::896-1023            3      0.02%     99.93% # Reads before turning the bus around for writes
system.mem_ctrls0.rdPerTurnAround::1024-1151            3      0.02%     99.95% # Reads before turning the bus around for writes
system.mem_ctrls0.rdPerTurnAround::1152-1279            1      0.01%     99.96% # Reads before turning the bus around for writes
system.mem_ctrls0.rdPerTurnAround::1280-1407            1      0.01%     99.97% # Reads before turning the bus around for writes
system.mem_ctrls0.rdPerTurnAround::1408-1535            1      0.01%     99.98% # Reads before turning the bus around for writes
system.mem_ctrls0.rdPerTurnAround::1536-1663            1      0.01%     99.98% # Reads before turning the bus around for writes
system.mem_ctrls0.rdPerTurnAround::1664-1791            1      0.01%     99.99% # Reads before turning the bus around for writes
system.mem_ctrls0.rdPerTurnAround::3968-4095            1      0.01%    100.00% # Reads before turning the bus around for writes
system.mem_ctrls0.rdPerTurnAround::total        12380                       # Reads before turning the bus around for writes
system.mem_ctrls0.wrPerTurnAround::samples        12380                       # Writes before turning the bus around for reads
system.mem_ctrls0.wrPerTurnAround::mean      5.059935                       # Writes before turning the bus around for reads
system.mem_ctrls0.wrPerTurnAround::gmean     5.041748                       # Writes before turning the bus around for reads
system.mem_ctrls0.wrPerTurnAround::stdev     0.613914                       # Writes before turning the bus around for reads
system.mem_ctrls0.wrPerTurnAround::4-7          12323     99.54%     99.54% # Writes before turning the bus around for reads
system.mem_ctrls0.wrPerTurnAround::8-11            19      0.15%     99.69% # Writes before turning the bus around for reads
system.mem_ctrls0.wrPerTurnAround::12-15            9      0.07%     99.77% # Writes before turning the bus around for reads
system.mem_ctrls0.wrPerTurnAround::16-19           29      0.23%    100.00% # Writes before turning the bus around for reads
system.mem_ctrls0.wrPerTurnAround::total        12380                       # Writes before turning the bus around for reads
system.mem_ctrls0.totQLat                  1971430153                       # Total ticks spent queuing
system.mem_ctrls0.totMemAccLat             6085142653                       # Total ticks spent from burst creation until serviced by the DRAM
system.mem_ctrls0.totBusLat                1096990000                       # Total ticks spent in databus transfers
system.mem_ctrls0.avgQLat                     8985.63                       # Average queueing delay per DRAM burst
system.mem_ctrls0.avgBusLat                   5000.00                       # Average bus latency per DRAM burst
system.mem_ctrls0.avgMemAccLat               27735.63                       # Average memory access latency per DRAM burst
system.mem_ctrls0.avgRdBW                      205.21                       # Average DRAM read bandwidth in MiByte/s
system.mem_ctrls0.avgWrBW                       58.59                       # Average achieved write bandwidth in MiByte/s
system.mem_ctrls0.avgRdBWSys                   205.23                       # Average system read bandwidth in MiByte/s
system.mem_ctrls0.avgWrBWSys                    58.59                       # Average system write bandwidth in MiByte/s
system.mem_ctrls0.peakBW                     12800.00                       # Theoretical peak bandwidth in MiByte/s
system.mem_ctrls0.busUtil                        2.06                       # Data bus utilization in percentage
system.mem_ctrls0.busUtilRead                    1.60                       # Data bus utilization in percentage for reads
system.mem_ctrls0.busUtilWrite                   0.46                       # Data bus utilization in percentage for writes
system.mem_ctrls0.avgRdQLen                      1.08                       # Average read queue length when enqueuing
system.mem_ctrls0.avgWrQLen                      2.86                       # Average write queue length when enqueuing
system.mem_ctrls0.readRowHits                  173438                       # Number of row buffer hits during reads
system.mem_ctrls0.writeRowHits                  39890                       # Number of row buffer hits during writes
system.mem_ctrls0.readRowHitRate                79.05                       # Row buffer hit rate for reads
system.mem_ctrls0.writeRowHitRate               63.68                       # Row buffer hit rate for writes
system.mem_ctrls0.avgGap                    242580.90                       # Average gap between requests
system.mem_ctrls0.pageHitRate                   75.64                       # Row buffer hit rate, read and write combined
system.mem_ctrls0.memoryStateTime::IDLE   10897284000                       # Time in different power states
system.mem_ctrls0.memoryStateTime::REF     2284620000                       # Time in different power states
system.mem_ctrls0.memoryStateTime::PRE_PDN            0                       # Time in different power states
system.mem_ctrls0.memoryStateTime::ACT    55236148500                       # Time in different power states
system.mem_ctrls0.memoryStateTime::ACT_PDN            0                       # Time in different power states
system.mem_ctrls0.actEnergy::0              264985560                       # Energy for activate commands per rank (pJ)
system.mem_ctrls0.actEnergy::1              254386440                       # Energy for activate commands per rank (pJ)
system.mem_ctrls0.preEnergy::0              144585375                       # Energy for precharge commands per rank (pJ)
system.mem_ctrls0.preEnergy::1              138802125                       # Energy for precharge commands per rank (pJ)
system.mem_ctrls0.readEnergy::0             862960800                       # Energy for read commands per rank (pJ)
system.mem_ctrls0.readEnergy::1             848187600                       # Energy for read commands per rank (pJ)
system.mem_ctrls0.writeEnergy::0            205811280                       # Energy for write commands per rank (pJ)
system.mem_ctrls0.writeEnergy::1            200108880                       # Energy for write commands per rank (pJ)
system.mem_ctrls0.refreshEnergy::0         4468716720                       # Energy for refresh commands per rank (pJ)
system.mem_ctrls0.refreshEnergy::1         4468716720                       # Energy for refresh commands per rank (pJ)
system.mem_ctrls0.actBackEnergy::0        31260298815                       # Energy for active background per rank (pJ)
system.mem_ctrls0.actBackEnergy::1        30633577830                       # Energy for active background per rank (pJ)
system.mem_ctrls0.preBackEnergy::0        13629508500                       # Energy for precharge background per rank (pJ)
system.mem_ctrls0.preBackEnergy::1        14179263750                       # Energy for precharge background per rank (pJ)
system.mem_ctrls0.totalEnergy::0          50836867050                       # Total energy per rank (pJ)
system.mem_ctrls0.totalEnergy::1          50723043345                       # Total energy per rank (pJ)
system.mem_ctrls0.averagePower::0          743.033094                       # Core power per rank (mW)
system.mem_ctrls0.averagePower::1          741.369444                       # Core power per rank (mW)
system.mem_ctrls1.bytes_read::ruby.dir_cntrl1     13860288                       # Number of bytes read from this memory
system.mem_ctrls1.bytes_read::total          13860288                       # Number of bytes read from this memory
system.mem_ctrls1.bytes_written::ruby.dir_cntrl1      3841984                       # Number of bytes written to this memory
system.mem_ctrls1.bytes_written::total        3841984                       # Number of bytes written to this memory
system.mem_ctrls1.num_reads::ruby.dir_cntrl1       216567                       # Number of read requests responded to by this memory
system.mem_ctrls1.num_reads::total             216567                       # Number of read requests responded to by this memory
system.mem_ctrls1.num_writes::ruby.dir_cntrl1        60031                       # Number of write requests responded to by this memory
system.mem_ctrls1.num_writes::total             60031                       # Number of write requests responded to by this memory
system.mem_ctrls1.bw_read::ruby.dir_cntrl1    202561625                       # Total read bandwidth from this memory (bytes/s)
system.mem_ctrls1.bw_read::total            202561625                       # Total read bandwidth from this memory (bytes/s)
system.mem_ctrls1.bw_write::ruby.dir_cntrl1     56148799                       # Write bandwidth from this memory (bytes/s)
system.mem_ctrls1.bw_write::total            56148799                       # Write bandwidth from this memory (bytes/s)
system.mem_ctrls1.bw_total::ruby.dir_cntrl1    258710424                       # Total bandwidth to/from this memory (bytes/s)
system.mem_ctrls1.bw_total::total           258710424                       # Total bandwidth to/from this memory (bytes/s)
system.mem_ctrls1.readReqs                     216567                       # Number of read requests accepted
system.mem_ctrls1.writeReqs                     60031                       # Number of write requests accepted
system.mem_ctrls1.readBursts                   216567                       # Number of DRAM read bursts, including those serviced by the write queue
system.mem_ctrls1.writeBursts                   60031                       # Number of DRAM write bursts, including those merged in the write queue
system.mem_ctrls1.bytesReadDRAM              13858560                       # Total number of bytes read from DRAM
system.mem_ctrls1.bytesReadWrQ                   1728                       # Total number of bytes read from write queue
system.mem_ctrls1.bytesWritten                3841984                       # Total number of bytes written to DRAM
system.mem_ctrls1.bytesReadSys               13860288                       # Total read bytes from the system interface side
system.mem_ctrls1.bytesWrittenSys             3841984                       # Total written bytes from the system interface side
system.mem_ctrls1.servicedByWrQ                    27                       # Number of DRAM read bursts serviced by the write queue
system.mem_ctrls1.mergedWrBursts                    0                       # Number of DRAM write bursts merged with an existing one
system.mem_ctrls1.neitherReadNorWriteReqs            0                       # Number of requests that are neither read nor write
system.mem_ctrls1.perBankRdBursts::0            13292                       # Per bank write bursts
system.mem_ctrls1.perBankRdBursts::1            13844                       # Per bank write bursts
system.mem_ctrls1.perBankRdBursts::2            13515                       # Per bank write bursts
system.mem_ctrls1.perBankRdBursts::3            13893                       # Per bank write bursts
system.mem_ctrls1.perBankRdBursts::4            13549                       # Per bank write bursts
system.mem_ctrls1.perBankRdBursts::5            14108                       # Per bank write bursts
system.mem_ctrls1.perBankRdBursts::6            13543                       # Per bank write bursts
system.mem_ctrls1.perBankRdBursts::7            13523                       # Per bank write bursts
system.mem_ctrls1.perBankRdBursts::8            13422                       # Per bank write bursts
system.mem_ctrls1.perBankRdBursts::9            13722                       # Per bank write bursts
system.mem_ctrls1.perBankRdBursts::10           13427                       # Per bank write bursts
system.mem_ctrls1.perBankRdBursts::11           13655                       # Per bank write bursts
system.mem_ctrls1.perBankRdBursts::12           13211                       # Per bank write bursts
system.mem_ctrls1.perBankRdBursts::13           13114                       # Per bank write bursts
system.mem_ctrls1.perBankRdBursts::14           13297                       # Per bank write bursts
system.mem_ctrls1.perBankRdBursts::15           13425                       # Per bank write bursts
system.mem_ctrls1.perBankWrBursts::0             3693                       # Per bank write bursts
system.mem_ctrls1.perBankWrBursts::1             3781                       # Per bank write bursts
system.mem_ctrls1.perBankWrBursts::2             3774                       # Per bank write bursts
system.mem_ctrls1.perBankWrBursts::3             3979                       # Per bank write bursts
system.mem_ctrls1.perBankWrBursts::4             3768                       # Per bank write bursts
system.mem_ctrls1.perBankWrBursts::5             3929                       # Per bank write bursts
system.mem_ctrls1.perBankWrBursts::6             3803                       # Per bank write bursts
system.mem_ctrls1.perBankWrBursts::7             3786                       # Per bank write bursts
system.mem_ctrls1.perBankWrBursts::8             3663                       # Per bank write bursts
system.mem_ctrls1.perBankWrBursts::9             3896                       # Per bank write bursts
system.mem_ctrls1.perBankWrBursts::10            3672                       # Per bank write bursts
system.mem_ctrls1.perBankWrBursts::11            3615                       # Per bank write bursts
system.mem_ctrls1.perBankWrBursts::12            3566                       # Per bank write bursts
system.mem_ctrls1.perBankWrBursts::13            3597                       # Per bank write bursts
system.mem_ctrls1.perBankWrBursts::14            3797                       # Per bank write bursts
system.mem_ctrls1.perBankWrBursts::15            3712                       # Per bank write bursts
system.mem_ctrls1.numRdRetry                        0                       # Number of times read queue was full causing retry
system.mem_ctrls1.numWrRetry                       70                       # Number of times write queue was full causing retry
system.mem_ctrls1.totGap                  68424293000                       # Total gap between requests
system.mem_ctrls1.readPktSize::0                    0                       # Read request sizes (log2)
system.mem_ctrls1.readPktSize::1                    0                       # Read request sizes (log2)
system.mem_ctrls1.readPktSize::2                    0                       # Read request sizes (log2)
system.mem_ctrls1.readPktSize::3                    0                       # Read request sizes (log2)
system.mem_ctrls1.readPktSize::4                    0                       # Read request sizes (log2)
system.mem_ctrls1.readPktSize::5                    0                       # Read request sizes (log2)
system.mem_ctrls1.readPktSize::6               216567                       # Read request sizes (log2)
system.mem_ctrls1.writePktSize::0                   0                       # Write request sizes (log2)
system.mem_ctrls1.writePktSize::1                   0                       # Write request sizes (log2)
system.mem_ctrls1.writePktSize::2                   0                       # Write request sizes (log2)
system.mem_ctrls1.writePktSize::3                   0                       # Write request sizes (log2)
system.mem_ctrls1.writePktSize::4                   0                       # Write request sizes (log2)
system.mem_ctrls1.writePktSize::5                   0                       # Write request sizes (log2)
system.mem_ctrls1.writePktSize::6               60031                       # Write request sizes (log2)
system.mem_ctrls1.rdQLenPdf::0                 191337                       # What read queue length does an incoming req see
system.mem_ctrls1.rdQLenPdf::1                  22646                       # What read queue length does an incoming req see
system.mem_ctrls1.rdQLenPdf::2                   1649                       # What read queue length does an incoming req see
system.mem_ctrls1.rdQLenPdf::3                    147                       # What read queue length does an incoming req see
system.mem_ctrls1.rdQLenPdf::4                     83                       # What read queue length does an incoming req see
system.mem_ctrls1.rdQLenPdf::5                     67                       # What read queue length does an incoming req see
system.mem_ctrls1.rdQLenPdf::6                     59                       # What read queue length does an incoming req see
system.mem_ctrls1.rdQLenPdf::7                     67                       # What read queue length does an incoming req see
system.mem_ctrls1.rdQLenPdf::8                     60                       # What read queue length does an incoming req see
system.mem_ctrls1.rdQLenPdf::9                     55                       # What read queue length does an incoming req see
system.mem_ctrls1.rdQLenPdf::10                    55                       # What read queue length does an incoming req see
system.mem_ctrls1.rdQLenPdf::11                    42                       # What read queue length does an incoming req see
system.mem_ctrls1.rdQLenPdf::12                    37                       # What read queue length does an incoming req see
system.mem_ctrls1.rdQLenPdf::13                    47                       # What read queue length does an incoming req see
system.mem_ctrls1.rdQLenPdf::14                    29                       # What read queue length does an incoming req see
system.mem_ctrls1.rdQLenPdf::15                    26                       # What read queue length does an incoming req see
system.mem_ctrls1.rdQLenPdf::16                    23                       # What read queue length does an incoming req see
system.mem_ctrls1.rdQLenPdf::17                    17                       # What read queue length does an incoming req see
system.mem_ctrls1.rdQLenPdf::18                    14                       # What read queue length does an incoming req see
system.mem_ctrls1.rdQLenPdf::19                    16                       # What read queue length does an incoming req see
system.mem_ctrls1.rdQLenPdf::20                    15                       # What read queue length does an incoming req see
system.mem_ctrls1.rdQLenPdf::21                    11                       # What read queue length does an incoming req see
system.mem_ctrls1.rdQLenPdf::22                     9                       # What read queue length does an incoming req see
system.mem_ctrls1.rdQLenPdf::23                     6                       # What read queue length does an incoming req see
system.mem_ctrls1.rdQLenPdf::24                     6                       # What read queue length does an incoming req see
system.mem_ctrls1.rdQLenPdf::25                     3                       # What read queue length does an incoming req see
system.mem_ctrls1.rdQLenPdf::26                     4                       # What read queue length does an incoming req see
system.mem_ctrls1.rdQLenPdf::27                     3                       # What read queue length does an incoming req see
system.mem_ctrls1.rdQLenPdf::28                     2                       # What read queue length does an incoming req see
system.mem_ctrls1.rdQLenPdf::29                     3                       # What read queue length does an incoming req see
system.mem_ctrls1.rdQLenPdf::30                     1                       # What read queue length does an incoming req see
system.mem_ctrls1.rdQLenPdf::31                     1                       # What read queue length does an incoming req see
system.mem_ctrls1.wrQLenPdf::0                  11860                       # What write queue length does an incoming req see
system.mem_ctrls1.wrQLenPdf::1                  11980                       # What write queue length does an incoming req see
system.mem_ctrls1.wrQLenPdf::2                  11967                       # What write queue length does an incoming req see
system.mem_ctrls1.wrQLenPdf::3                  11954                       # What write queue length does an incoming req see
system.mem_ctrls1.wrQLenPdf::4                  11931                       # What write queue length does an incoming req see
system.mem_ctrls1.wrQLenPdf::5                    128                       # What write queue length does an incoming req see
system.mem_ctrls1.wrQLenPdf::6                     84                       # What write queue length does an incoming req see
system.mem_ctrls1.wrQLenPdf::7                    127                       # What write queue length does an incoming req see
system.mem_ctrls1.bytesPerActivate::samples        64379                       # Bytes accessed per row activation
system.mem_ctrls1.bytesPerActivate::mean   274.922941                       # Bytes accessed per row activation
system.mem_ctrls1.bytesPerActivate::gmean   181.430459                       # Bytes accessed per row activation
system.mem_ctrls1.bytesPerActivate::stdev   275.712041                       # Bytes accessed per row activation
system.mem_ctrls1.bytesPerActivate::0-127        19299     29.98%     29.98% # Bytes accessed per row activation
system.mem_ctrls1.bytesPerActivate::128-255        17934     27.86%     57.83% # Bytes accessed per row activation
system.mem_ctrls1.bytesPerActivate::256-383        14623     22.71%     80.55% # Bytes accessed per row activation
system.mem_ctrls1.bytesPerActivate::384-511         2604      4.04%     84.59% # Bytes accessed per row activation
system.mem_ctrls1.bytesPerActivate::512-639         1938      3.01%     87.60% # Bytes accessed per row activation
system.mem_ctrls1.bytesPerActivate::640-767         1307      2.03%     89.63% # Bytes accessed per row activation
system.mem_ctrls1.bytesPerActivate::768-895         1067      1.66%     91.29% # Bytes accessed per row activation
system.mem_ctrls1.bytesPerActivate::896-1023          963      1.50%     92.79% # Bytes accessed per row activation
system.mem_ctrls1.bytesPerActivate::1024-1151         4644      7.21%    100.00% # Bytes accessed per row activation
system.mem_ctrls1.bytesPerActivate::total        64379                       # Bytes accessed per row activation
system.mem_ctrls1.rdPerTurnAround::samples        11874                       # Reads before turning the bus around for writes
system.mem_ctrls1.rdPerTurnAround::mean     18.236399                       # Reads before turning the bus around for writes
system.mem_ctrls1.rdPerTurnAround::stdev    82.599742                       # Reads before turning the bus around for writes
system.mem_ctrls1.rdPerTurnAround::0-127        11524     97.05%     97.05% # Reads before turning the bus around for writes
system.mem_ctrls1.rdPerTurnAround::128-255          148      1.25%     98.30% # Reads before turning the bus around for writes
system.mem_ctrls1.rdPerTurnAround::256-383           83      0.70%     99.00% # Reads before turning the bus around for writes
system.mem_ctrls1.rdPerTurnAround::384-511           39      0.33%     99.33% # Reads before turning the bus around for writes
system.mem_ctrls1.rdPerTurnAround::512-639           54      0.45%     99.78% # Reads before turning the bus around for writes
system.mem_ctrls1.rdPerTurnAround::640-767            7      0.06%     99.84% # Reads before turning the bus around for writes
system.mem_ctrls1.rdPerTurnAround::768-895            3      0.03%     99.87% # Reads before turning the bus around for writes
system.mem_ctrls1.rdPerTurnAround::896-1023            2      0.02%     99.88% # Reads before turning the bus around for writes
system.mem_ctrls1.rdPerTurnAround::1024-1151            5      0.04%     99.92% # Reads before turning the bus around for writes
system.mem_ctrls1.rdPerTurnAround::1152-1279            3      0.03%     99.95% # Reads before turning the bus around for writes
system.mem_ctrls1.rdPerTurnAround::1280-1407            1      0.01%     99.96% # Reads before turning the bus around for writes
system.mem_ctrls1.rdPerTurnAround::1536-1663            1      0.01%     99.97% # Reads before turning the bus around for writes
system.mem_ctrls1.rdPerTurnAround::1664-1791            1      0.01%     99.97% # Reads before turning the bus around for writes
system.mem_ctrls1.rdPerTurnAround::2048-2175            1      0.01%     99.98% # Reads before turning the bus around for writes
system.mem_ctrls1.rdPerTurnAround::2560-2687            1      0.01%     99.99% # Reads before turning the bus around for writes
system.mem_ctrls1.rdPerTurnAround::2816-2943            1      0.01%    100.00% # Reads before turning the bus around for writes
system.mem_ctrls1.rdPerTurnAround::total        11874                       # Reads before turning the bus around for writes
system.mem_ctrls1.wrPerTurnAround::samples        11874                       # Writes before turning the bus around for reads
system.mem_ctrls1.wrPerTurnAround::mean      5.055668                       # Writes before turning the bus around for reads
system.mem_ctrls1.wrPerTurnAround::gmean     5.040249                       # Writes before turning the bus around for reads
system.mem_ctrls1.wrPerTurnAround::stdev     0.545435                       # Writes before turning the bus around for reads
system.mem_ctrls1.wrPerTurnAround::4-7          11810     99.46%     99.46% # Writes before turning the bus around for reads
system.mem_ctrls1.wrPerTurnAround::8-11            37      0.31%     99.77% # Writes before turning the bus around for reads
system.mem_ctrls1.wrPerTurnAround::12-15           13      0.11%     99.88% # Writes before turning the bus around for reads
system.mem_ctrls1.wrPerTurnAround::16-19           14      0.12%    100.00% # Writes before turning the bus around for reads
system.mem_ctrls1.wrPerTurnAround::total        11874                       # Writes before turning the bus around for reads
system.mem_ctrls1.totQLat                  1786394439                       # Total ticks spent queuing
system.mem_ctrls1.totMemAccLat             5846519439                       # Total ticks spent from burst creation until serviced by the DRAM
system.mem_ctrls1.totBusLat                1082700000                       # Total ticks spent in databus transfers
system.mem_ctrls1.avgQLat                     8249.72                       # Average queueing delay per DRAM burst
system.mem_ctrls1.avgBusLat                   5000.00                       # Average bus latency per DRAM burst
system.mem_ctrls1.avgMemAccLat               26999.72                       # Average memory access latency per DRAM burst
system.mem_ctrls1.avgRdBW                      202.54                       # Average DRAM read bandwidth in MiByte/s
system.mem_ctrls1.avgWrBW                       56.15                       # Average achieved write bandwidth in MiByte/s
system.mem_ctrls1.avgRdBWSys                   202.56                       # Average system read bandwidth in MiByte/s
system.mem_ctrls1.avgWrBWSys                    56.15                       # Average system write bandwidth in MiByte/s
system.mem_ctrls1.peakBW                     12800.00                       # Theoretical peak bandwidth in MiByte/s
system.mem_ctrls1.busUtil                        2.02                       # Data bus utilization in percentage
system.mem_ctrls1.busUtilRead                    1.58                       # Data bus utilization in percentage for reads
system.mem_ctrls1.busUtilWrite                   0.44                       # Data bus utilization in percentage for writes
system.mem_ctrls1.avgRdQLen                      1.07                       # Average read queue length when enqueuing
system.mem_ctrls1.avgWrQLen                      2.91                       # Average write queue length when enqueuing
system.mem_ctrls1.readRowHits                  171995                       # Number of row buffer hits during reads
system.mem_ctrls1.writeRowHits                  40189                       # Number of row buffer hits during writes
system.mem_ctrls1.readRowHitRate                79.43                       # Row buffer hit rate for reads
system.mem_ctrls1.writeRowHitRate               66.95                       # Row buffer hit rate for writes
system.mem_ctrls1.avgGap                    247378.12                       # Average gap between requests
system.mem_ctrls1.pageHitRate                   76.72                       # Row buffer hit rate, read and write combined
system.mem_ctrls1.memoryStateTime::IDLE   11321151250                       # Time in different power states
system.mem_ctrls1.memoryStateTime::REF     2284620000                       # Time in different power states
system.mem_ctrls1.memoryStateTime::PRE_PDN            0                       # Time in different power states
system.mem_ctrls1.memoryStateTime::ACT    54812780250                       # Time in different power states
system.mem_ctrls1.memoryStateTime::ACT_PDN            0                       # Time in different power states
system.mem_ctrls1.actEnergy::0              249321240                       # Energy for activate commands per rank (pJ)
system.mem_ctrls1.actEnergy::1              237361320                       # Energy for activate commands per rank (pJ)
system.mem_ctrls1.preEnergy::0              136038375                       # Energy for precharge commands per rank (pJ)
system.mem_ctrls1.preEnergy::1              129512625                       # Energy for precharge commands per rank (pJ)
system.mem_ctrls1.readEnergy::0             852173400                       # Energy for read commands per rank (pJ)
system.mem_ctrls1.readEnergy::1             836690400                       # Energy for read commands per rank (pJ)
system.mem_ctrls1.writeEnergy::0            197691840                       # Energy for write commands per rank (pJ)
system.mem_ctrls1.writeEnergy::1            191276640                       # Energy for write commands per rank (pJ)
system.mem_ctrls1.refreshEnergy::0         4468716720                       # Energy for refresh commands per rank (pJ)
system.mem_ctrls1.refreshEnergy::1         4468716720                       # Energy for refresh commands per rank (pJ)
system.mem_ctrls1.actBackEnergy::0        30964925385                       # Energy for active background per rank (pJ)
system.mem_ctrls1.actBackEnergy::1        30090561345                       # Energy for active background per rank (pJ)
system.mem_ctrls1.preBackEnergy::0        13888608000                       # Energy for precharge background per rank (pJ)
system.mem_ctrls1.preBackEnergy::1        14655594000                       # Energy for precharge background per rank (pJ)
system.mem_ctrls1.totalEnergy::0          50757474960                       # Total energy per rank (pJ)
system.mem_ctrls1.totalEnergy::1          50609713050                       # Total energy per rank (pJ)
system.mem_ctrls1.averagePower::0          741.872697                       # Core power per rank (mW)
system.mem_ctrls1.averagePower::1          739.713005                       # Core power per rank (mW)
system.mem_ctrls2.bytes_read::ruby.dir_cntrl2     13861888                       # Number of bytes read from this memory
system.mem_ctrls2.bytes_read::total          13861888                       # Number of bytes read from this memory
system.mem_ctrls2.bytes_written::ruby.dir_cntrl2      3843648                       # Number of bytes written to this memory
system.mem_ctrls2.bytes_written::total        3843648                       # Number of bytes written to this memory
system.mem_ctrls2.num_reads::ruby.dir_cntrl2       216592                       # Number of read requests responded to by this memory
system.mem_ctrls2.num_reads::total             216592                       # Number of read requests responded to by this memory
system.mem_ctrls2.num_writes::ruby.dir_cntrl2        60057                       # Number of write requests responded to by this memory
system.mem_ctrls2.num_writes::total             60057                       # Number of write requests responded to by this memory
system.mem_ctrls2.bw_read::ruby.dir_cntrl2    202585008                       # Total read bandwidth from this memory (bytes/s)
system.mem_ctrls2.bw_read::total            202585008                       # Total read bandwidth from this memory (bytes/s)
system.mem_ctrls2.bw_write::ruby.dir_cntrl2     56173117                       # Write bandwidth from this memory (bytes/s)
system.mem_ctrls2.bw_write::total            56173117                       # Write bandwidth from this memory (bytes/s)
system.mem_ctrls2.bw_total::ruby.dir_cntrl2    258758126                       # Total bandwidth to/from this memory (bytes/s)
system.mem_ctrls2.bw_total::total           258758126                       # Total bandwidth to/from this memory (bytes/s)
system.mem_ctrls2.readReqs                     216592                       # Number of read requests accepted
system.mem_ctrls2.writeReqs                     60057                       # Number of write requests accepted
system.mem_ctrls2.readBursts                   216592                       # Number of DRAM read bursts, including those serviced by the write queue
system.mem_ctrls2.writeBursts                   60057                       # Number of DRAM write bursts, including those merged in the write queue
system.mem_ctrls2.bytesReadDRAM              13861056                       # Total number of bytes read from DRAM
system.mem_ctrls2.bytesReadWrQ                    832                       # Total number of bytes read from write queue
system.mem_ctrls2.bytesWritten                3843392                       # Total number of bytes written to DRAM
system.mem_ctrls2.bytesReadSys               13861888                       # Total read bytes from the system interface side
system.mem_ctrls2.bytesWrittenSys             3843648                       # Total written bytes from the system interface side
system.mem_ctrls2.servicedByWrQ                    13                       # Number of DRAM read bursts serviced by the write queue
system.mem_ctrls2.mergedWrBursts                    0                       # Number of DRAM write bursts merged with an existing one
system.mem_ctrls2.neitherReadNorWriteReqs            0                       # Number of requests that are neither read nor write
system.mem_ctrls2.perBankRdBursts::0            13292                       # Per bank write bursts
system.mem_ctrls2.perBankRdBursts::1            13855                       # Per bank write bursts
system.mem_ctrls2.perBankRdBursts::2            13543                       # Per bank write bursts
system.mem_ctrls2.perBankRdBursts::3            13920                       # Per bank write bursts
system.mem_ctrls2.perBankRdBursts::4            13555                       # Per bank write bursts
system.mem_ctrls2.perBankRdBursts::5            14098                       # Per bank write bursts
system.mem_ctrls2.perBankRdBursts::6            13503                       # Per bank write bursts
system.mem_ctrls2.perBankRdBursts::7            13524                       # Per bank write bursts
system.mem_ctrls2.perBankRdBursts::8            13418                       # Per bank write bursts
system.mem_ctrls2.perBankRdBursts::9            13719                       # Per bank write bursts
system.mem_ctrls2.perBankRdBursts::10           13433                       # Per bank write bursts
system.mem_ctrls2.perBankRdBursts::11           13706                       # Per bank write bursts
system.mem_ctrls2.perBankRdBursts::12           13205                       # Per bank write bursts
system.mem_ctrls2.perBankRdBursts::13           13074                       # Per bank write bursts
system.mem_ctrls2.perBankRdBursts::14           13303                       # Per bank write bursts
system.mem_ctrls2.perBankRdBursts::15           13431                       # Per bank write bursts
system.mem_ctrls2.perBankWrBursts::0             3685                       # Per bank write bursts
system.mem_ctrls2.perBankWrBursts::1             3779                       # Per bank write bursts
system.mem_ctrls2.perBankWrBursts::2             3771                       # Per bank write bursts
system.mem_ctrls2.perBankWrBursts::3             3992                       # Per bank write bursts
system.mem_ctrls2.perBankWrBursts::4             3766                       # Per bank write bursts
system.mem_ctrls2.perBankWrBursts::5             3915                       # Per bank write bursts
system.mem_ctrls2.perBankWrBursts::6             3813                       # Per bank write bursts
system.mem_ctrls2.perBankWrBursts::7             3799                       # Per bank write bursts
system.mem_ctrls2.perBankWrBursts::8             3665                       # Per bank write bursts
system.mem_ctrls2.perBankWrBursts::9             3904                       # Per bank write bursts
system.mem_ctrls2.perBankWrBursts::10            3665                       # Per bank write bursts
system.mem_ctrls2.perBankWrBursts::11            3614                       # Per bank write bursts
system.mem_ctrls2.perBankWrBursts::12            3575                       # Per bank write bursts
system.mem_ctrls2.perBankWrBursts::13            3592                       # Per bank write bursts
system.mem_ctrls2.perBankWrBursts::14            3802                       # Per bank write bursts
system.mem_ctrls2.perBankWrBursts::15            3716                       # Per bank write bursts
system.mem_ctrls2.numRdRetry                       57                       # Number of times read queue was full causing retry
system.mem_ctrls2.numWrRetry                       80                       # Number of times write queue was full causing retry
system.mem_ctrls2.totGap                  68424325500                       # Total gap between requests
system.mem_ctrls2.readPktSize::0                    0                       # Read request sizes (log2)
system.mem_ctrls2.readPktSize::1                    0                       # Read request sizes (log2)
system.mem_ctrls2.readPktSize::2                    0                       # Read request sizes (log2)
system.mem_ctrls2.readPktSize::3                    0                       # Read request sizes (log2)
system.mem_ctrls2.readPktSize::4                    0                       # Read request sizes (log2)
system.mem_ctrls2.readPktSize::5                    0                       # Read request sizes (log2)
system.mem_ctrls2.readPktSize::6               216592                       # Read request sizes (log2)
system.mem_ctrls2.writePktSize::0                   0                       # Write request sizes (log2)
system.mem_ctrls2.writePktSize::1                   0                       # Write request sizes (log2)
system.mem_ctrls2.writePktSize::2                   0                       # Write request sizes (log2)
system.mem_ctrls2.writePktSize::3                   0                       # Write request sizes (log2)
system.mem_ctrls2.writePktSize::4                   0                       # Write request sizes (log2)
system.mem_ctrls2.writePktSize::5                   0                       # Write request sizes (log2)
system.mem_ctrls2.writePktSize::6               60057                       # Write request sizes (log2)
system.mem_ctrls2.rdQLenPdf::0                 191858                       # What read queue length does an incoming req see
system.mem_ctrls2.rdQLenPdf::1                  22322                       # What read queue length does an incoming req see
system.mem_ctrls2.rdQLenPdf::2                   1515                       # What read queue length does an incoming req see
system.mem_ctrls2.rdQLenPdf::3                    129                       # What read queue length does an incoming req see
system.mem_ctrls2.rdQLenPdf::4                     74                       # What read queue length does an incoming req see
system.mem_ctrls2.rdQLenPdf::5                     70                       # What read queue length does an incoming req see
system.mem_ctrls2.rdQLenPdf::6                     63                       # What read queue length does an incoming req see
system.mem_ctrls2.rdQLenPdf::7                     71                       # What read queue length does an incoming req see
system.mem_ctrls2.rdQLenPdf::8                     45                       # What read queue length does an incoming req see
system.mem_ctrls2.rdQLenPdf::9                     33                       # What read queue length does an incoming req see
system.mem_ctrls2.rdQLenPdf::10                    26                       # What read queue length does an incoming req see
system.mem_ctrls2.rdQLenPdf::11                    22                       # What read queue length does an incoming req see
system.mem_ctrls2.rdQLenPdf::12                    17                       # What read queue length does an incoming req see
system.mem_ctrls2.rdQLenPdf::13                    19                       # What read queue length does an incoming req see
system.mem_ctrls2.rdQLenPdf::14                    17                       # What read queue length does an incoming req see
system.mem_ctrls2.rdQLenPdf::15                    13                       # What read queue length does an incoming req see
system.mem_ctrls2.rdQLenPdf::16                    11                       # What read queue length does an incoming req see
system.mem_ctrls2.rdQLenPdf::17                    15                       # What read queue length does an incoming req see
system.mem_ctrls2.rdQLenPdf::18                     8                       # What read queue length does an incoming req see
system.mem_ctrls2.rdQLenPdf::19                     6                       # What read queue length does an incoming req see
system.mem_ctrls2.rdQLenPdf::20                     8                       # What read queue length does an incoming req see
system.mem_ctrls2.rdQLenPdf::21                     9                       # What read queue length does an incoming req see
system.mem_ctrls2.rdQLenPdf::22                     8                       # What read queue length does an incoming req see
system.mem_ctrls2.rdQLenPdf::23                    12                       # What read queue length does an incoming req see
system.mem_ctrls2.rdQLenPdf::24                    19                       # What read queue length does an incoming req see
system.mem_ctrls2.rdQLenPdf::25                    15                       # What read queue length does an incoming req see
system.mem_ctrls2.rdQLenPdf::26                    16                       # What read queue length does an incoming req see
system.mem_ctrls2.rdQLenPdf::27                    23                       # What read queue length does an incoming req see
system.mem_ctrls2.rdQLenPdf::28                    17                       # What read queue length does an incoming req see
system.mem_ctrls2.rdQLenPdf::29                    15                       # What read queue length does an incoming req see
system.mem_ctrls2.rdQLenPdf::30                    21                       # What read queue length does an incoming req see
system.mem_ctrls2.rdQLenPdf::31                    82                       # What read queue length does an incoming req see
system.mem_ctrls2.wrQLenPdf::0                  11868                       # What write queue length does an incoming req see
system.mem_ctrls2.wrQLenPdf::1                  11979                       # What write queue length does an incoming req see
system.mem_ctrls2.wrQLenPdf::2                  11954                       # What write queue length does an incoming req see
system.mem_ctrls2.wrQLenPdf::3                  11966                       # What write queue length does an incoming req see
system.mem_ctrls2.wrQLenPdf::4                  11939                       # What write queue length does an incoming req see
system.mem_ctrls2.wrQLenPdf::5                    138                       # What write queue length does an incoming req see
system.mem_ctrls2.wrQLenPdf::6                     80                       # What write queue length does an incoming req see
system.mem_ctrls2.wrQLenPdf::7                    133                       # What write queue length does an incoming req see
system.mem_ctrls2.bytesPerActivate::samples        64344                       # Bytes accessed per row activation
system.mem_ctrls2.bytesPerActivate::mean   275.135149                       # Bytes accessed per row activation
system.mem_ctrls2.bytesPerActivate::gmean   181.436698                       # Bytes accessed per row activation
system.mem_ctrls2.bytesPerActivate::stdev   276.000819                       # Bytes accessed per row activation
system.mem_ctrls2.bytesPerActivate::0-127        19370     30.10%     30.10% # Bytes accessed per row activation
system.mem_ctrls2.bytesPerActivate::128-255        17611     27.37%     57.47% # Bytes accessed per row activation
system.mem_ctrls2.bytesPerActivate::256-383        14816     23.03%     80.50% # Bytes accessed per row activation
system.mem_ctrls2.bytesPerActivate::384-511         2637      4.10%     84.60% # Bytes accessed per row activation
system.mem_ctrls2.bytesPerActivate::512-639         1934      3.01%     87.60% # Bytes accessed per row activation
system.mem_ctrls2.bytesPerActivate::640-767         1273      1.98%     89.58% # Bytes accessed per row activation
system.mem_ctrls2.bytesPerActivate::768-895         1064      1.65%     91.24% # Bytes accessed per row activation
system.mem_ctrls2.bytesPerActivate::896-1023          968      1.50%     92.74% # Bytes accessed per row activation
system.mem_ctrls2.bytesPerActivate::1024-1151         4671      7.26%    100.00% # Bytes accessed per row activation
system.mem_ctrls2.bytesPerActivate::total        64344                       # Bytes accessed per row activation
system.mem_ctrls2.rdPerTurnAround::samples        11881                       # Reads before turning the bus around for writes
system.mem_ctrls2.rdPerTurnAround::mean     18.050417                       # Reads before turning the bus around for writes
system.mem_ctrls2.rdPerTurnAround::stdev    79.295862                       # Reads before turning the bus around for writes
system.mem_ctrls2.rdPerTurnAround::0-127        11541     97.14%     97.14% # Reads before turning the bus around for writes
system.mem_ctrls2.rdPerTurnAround::128-255          145      1.22%     98.36% # Reads before turning the bus around for writes
system.mem_ctrls2.rdPerTurnAround::256-383           77      0.65%     99.01% # Reads before turning the bus around for writes
system.mem_ctrls2.rdPerTurnAround::384-511           33      0.28%     99.28% # Reads before turning the bus around for writes
system.mem_ctrls2.rdPerTurnAround::512-639           58      0.49%     99.77% # Reads before turning the bus around for writes
system.mem_ctrls2.rdPerTurnAround::640-767            7      0.06%     99.83% # Reads before turning the bus around for writes
system.mem_ctrls2.rdPerTurnAround::768-895            4      0.03%     99.87% # Reads before turning the bus around for writes
system.mem_ctrls2.rdPerTurnAround::896-1023            3      0.03%     99.89% # Reads before turning the bus around for writes
system.mem_ctrls2.rdPerTurnAround::1024-1151            5      0.04%     99.93% # Reads before turning the bus around for writes
system.mem_ctrls2.rdPerTurnAround::1152-1279            3      0.03%     99.96% # Reads before turning the bus around for writes
system.mem_ctrls2.rdPerTurnAround::1408-1535            1      0.01%     99.97% # Reads before turning the bus around for writes
system.mem_ctrls2.rdPerTurnAround::1536-1663            2      0.02%     99.98% # Reads before turning the bus around for writes
system.mem_ctrls2.rdPerTurnAround::1664-1791            1      0.01%     99.99% # Reads before turning the bus around for writes
system.mem_ctrls2.rdPerTurnAround::2816-2943            1      0.01%    100.00% # Reads before turning the bus around for writes
system.mem_ctrls2.rdPerTurnAround::total        11881                       # Reads before turning the bus around for writes
system.mem_ctrls2.wrPerTurnAround::samples        11881                       # Writes before turning the bus around for reads
system.mem_ctrls2.wrPerTurnAround::mean      5.054541                       # Writes before turning the bus around for reads
system.mem_ctrls2.wrPerTurnAround::gmean     5.038892                       # Writes before turning the bus around for reads
system.mem_ctrls2.wrPerTurnAround::stdev     0.554948                       # Writes before turning the bus around for reads
system.mem_ctrls2.wrPerTurnAround::4-7          11815     99.44%     99.44% # Writes before turning the bus around for reads
system.mem_ctrls2.wrPerTurnAround::8-11            40      0.34%     99.78% # Writes before turning the bus around for reads
system.mem_ctrls2.wrPerTurnAround::12-15            9      0.08%     99.86% # Writes before turning the bus around for reads
system.mem_ctrls2.wrPerTurnAround::16-19           17      0.14%    100.00% # Writes before turning the bus around for reads
system.mem_ctrls2.wrPerTurnAround::total        11881                       # Writes before turning the bus around for reads
system.mem_ctrls2.totQLat                  1808540209                       # Total ticks spent queuing
system.mem_ctrls2.totMemAccLat             5869396459                       # Total ticks spent from burst creation until serviced by the DRAM
system.mem_ctrls2.totBusLat                1082895000                       # Total ticks spent in databus transfers
system.mem_ctrls2.avgQLat                     8350.49                       # Average queueing delay per DRAM burst
system.mem_ctrls2.avgBusLat                   5000.00                       # Average bus latency per DRAM burst
system.mem_ctrls2.avgMemAccLat               27100.49                       # Average memory access latency per DRAM burst
system.mem_ctrls2.avgRdBW                      202.57                       # Average DRAM read bandwidth in MiByte/s
system.mem_ctrls2.avgWrBW                       56.17                       # Average achieved write bandwidth in MiByte/s
system.mem_ctrls2.avgRdBWSys                   202.59                       # Average system read bandwidth in MiByte/s
system.mem_ctrls2.avgWrBWSys                    56.17                       # Average system write bandwidth in MiByte/s
system.mem_ctrls2.peakBW                     12800.00                       # Theoretical peak bandwidth in MiByte/s
system.mem_ctrls2.busUtil                        2.02                       # Data bus utilization in percentage
system.mem_ctrls2.busUtilRead                    1.58                       # Data bus utilization in percentage for reads
system.mem_ctrls2.busUtilWrite                   0.44                       # Data bus utilization in percentage for writes
system.mem_ctrls2.avgRdQLen                      1.06                       # Average read queue length when enqueuing
system.mem_ctrls2.avgWrQLen                      3.02                       # Average write queue length when enqueuing
system.mem_ctrls2.readRowHits                  172056                       # Number of row buffer hits during reads
system.mem_ctrls2.writeRowHits                  40223                       # Number of row buffer hits during writes
system.mem_ctrls2.readRowHitRate                79.44                       # Row buffer hit rate for reads
system.mem_ctrls2.writeRowHitRate               66.97                       # Row buffer hit rate for writes
system.mem_ctrls2.avgGap                    247332.63                       # Average gap between requests
system.mem_ctrls2.pageHitRate                   76.74                       # Row buffer hit rate, read and write combined
system.mem_ctrls2.memoryStateTime::IDLE   11248941000                       # Time in different power states
system.mem_ctrls2.memoryStateTime::REF     2284620000                       # Time in different power states
system.mem_ctrls2.memoryStateTime::PRE_PDN            0                       # Time in different power states
system.mem_ctrls2.memoryStateTime::ACT    54884621500                       # Time in different power states
system.mem_ctrls2.memoryStateTime::ACT_PDN            0                       # Time in different power states
system.mem_ctrls2.actEnergy::0              249585840                       # Energy for activate commands per rank (pJ)
system.mem_ctrls2.actEnergy::1              236847240                       # Energy for activate commands per rank (pJ)
system.mem_ctrls2.preEnergy::0              136182750                       # Energy for precharge commands per rank (pJ)
system.mem_ctrls2.preEnergy::1              129232125                       # Energy for precharge commands per rank (pJ)
system.mem_ctrls2.readEnergy::0             852352800                       # Energy for read commands per rank (pJ)
system.mem_ctrls2.readEnergy::1             836815200                       # Energy for read commands per rank (pJ)
system.mem_ctrls2.writeEnergy::0            197769600                       # Energy for write commands per rank (pJ)
system.mem_ctrls2.writeEnergy::1            191373840                       # Energy for write commands per rank (pJ)
system.mem_ctrls2.refreshEnergy::0         4468716720                       # Energy for refresh commands per rank (pJ)
system.mem_ctrls2.refreshEnergy::1         4468716720                       # Energy for refresh commands per rank (pJ)
system.mem_ctrls2.actBackEnergy::0        30911548590                       # Energy for active background per rank (pJ)
system.mem_ctrls2.actBackEnergy::1        30225317040                       # Energy for active background per rank (pJ)
system.mem_ctrls2.preBackEnergy::0        13935429750                       # Energy for precharge background per rank (pJ)
system.mem_ctrls2.preBackEnergy::1        14537387250                       # Energy for precharge background per rank (pJ)
system.mem_ctrls2.totalEnergy::0          50751586050                       # Total energy per rank (pJ)
system.mem_ctrls2.totalEnergy::1          50625689415                       # Total energy per rank (pJ)
system.mem_ctrls2.averagePower::0          741.786625                       # Core power per rank (mW)
system.mem_ctrls2.averagePower::1          739.946516                       # Core power per rank (mW)
system.mem_ctrls3.bytes_read::ruby.dir_cntrl3     13847104                       # Number of bytes read from this memory
system.mem_ctrls3.bytes_read::total          13847104                       # Number of bytes read from this memory
system.mem_ctrls3.bytes_written::ruby.dir_cntrl3      3839936                       # Number of bytes written to this memory
system.mem_ctrls3.bytes_written::total        3839936                       # Number of bytes written to this memory
system.mem_ctrls3.num_reads::ruby.dir_cntrl3       216361                       # Number of read requests responded to by this memory
system.mem_ctrls3.num_reads::total             216361                       # Number of read requests responded to by this memory
system.mem_ctrls3.num_writes::ruby.dir_cntrl3        59999                       # Number of write requests responded to by this memory
system.mem_ctrls3.num_writes::total             59999                       # Number of write requests responded to by this memory
system.mem_ctrls3.bw_read::ruby.dir_cntrl3    202368947                       # Total read bandwidth from this memory (bytes/s)
system.mem_ctrls3.bw_read::total            202368947                       # Total read bandwidth from this memory (bytes/s)
system.mem_ctrls3.bw_write::ruby.dir_cntrl3     56118868                       # Write bandwidth from this memory (bytes/s)
system.mem_ctrls3.bw_write::total            56118868                       # Write bandwidth from this memory (bytes/s)
system.mem_ctrls3.bw_total::ruby.dir_cntrl3    258487815                       # Total bandwidth to/from this memory (bytes/s)
system.mem_ctrls3.bw_total::total           258487815                       # Total bandwidth to/from this memory (bytes/s)
system.mem_ctrls3.readReqs                     216362                       # Number of read requests accepted
system.mem_ctrls3.writeReqs                     59999                       # Number of write requests accepted
system.mem_ctrls3.readBursts                   216362                       # Number of DRAM read bursts, including those serviced by the write queue
system.mem_ctrls3.writeBursts                   59999                       # Number of DRAM write bursts, including those merged in the write queue
system.mem_ctrls3.bytesReadDRAM              13846400                       # Total number of bytes read from DRAM
system.mem_ctrls3.bytesReadWrQ                    768                       # Total number of bytes read from write queue
system.mem_ctrls3.bytesWritten                3839744                       # Total number of bytes written to DRAM
system.mem_ctrls3.bytesReadSys               13847168                       # Total read bytes from the system interface side
system.mem_ctrls3.bytesWrittenSys             3839936                       # Total written bytes from the system interface side
system.mem_ctrls3.servicedByWrQ                    12                       # Number of DRAM read bursts serviced by the write queue
system.mem_ctrls3.mergedWrBursts                    0                       # Number of DRAM write bursts merged with an existing one
system.mem_ctrls3.neitherReadNorWriteReqs            0                       # Number of requests that are neither read nor write
system.mem_ctrls3.perBankRdBursts::0            13273                       # Per bank write bursts
system.mem_ctrls3.perBankRdBursts::1            13850                       # Per bank write bursts
system.mem_ctrls3.perBankRdBursts::2            13482                       # Per bank write bursts
system.mem_ctrls3.perBankRdBursts::3            13899                       # Per bank write bursts
system.mem_ctrls3.perBankRdBursts::4            13497                       # Per bank write bursts
system.mem_ctrls3.perBankRdBursts::5            14079                       # Per bank write bursts
system.mem_ctrls3.perBankRdBursts::6            13526                       # Per bank write bursts
system.mem_ctrls3.perBankRdBursts::7            13509                       # Per bank write bursts
system.mem_ctrls3.perBankRdBursts::8            13419                       # Per bank write bursts
system.mem_ctrls3.perBankRdBursts::9            13706                       # Per bank write bursts
system.mem_ctrls3.perBankRdBursts::10           13453                       # Per bank write bursts
system.mem_ctrls3.perBankRdBursts::11           13666                       # Per bank write bursts
system.mem_ctrls3.perBankRdBursts::12           13200                       # Per bank write bursts
system.mem_ctrls3.perBankRdBursts::13           13070                       # Per bank write bursts
system.mem_ctrls3.perBankRdBursts::14           13317                       # Per bank write bursts
system.mem_ctrls3.perBankRdBursts::15           13404                       # Per bank write bursts
system.mem_ctrls3.perBankWrBursts::0             3692                       # Per bank write bursts
system.mem_ctrls3.perBankWrBursts::1             3769                       # Per bank write bursts
system.mem_ctrls3.perBankWrBursts::2             3758                       # Per bank write bursts
system.mem_ctrls3.perBankWrBursts::3             3975                       # Per bank write bursts
system.mem_ctrls3.perBankWrBursts::4             3764                       # Per bank write bursts
system.mem_ctrls3.perBankWrBursts::5             3911                       # Per bank write bursts
system.mem_ctrls3.perBankWrBursts::6             3810                       # Per bank write bursts
system.mem_ctrls3.perBankWrBursts::7             3783                       # Per bank write bursts
system.mem_ctrls3.perBankWrBursts::8             3662                       # Per bank write bursts
system.mem_ctrls3.perBankWrBursts::9             3909                       # Per bank write bursts
system.mem_ctrls3.perBankWrBursts::10            3664                       # Per bank write bursts
system.mem_ctrls3.perBankWrBursts::11            3628                       # Per bank write bursts
system.mem_ctrls3.perBankWrBursts::12            3573                       # Per bank write bursts
system.mem_ctrls3.perBankWrBursts::13            3596                       # Per bank write bursts
system.mem_ctrls3.perBankWrBursts::14            3798                       # Per bank write bursts
system.mem_ctrls3.perBankWrBursts::15            3704                       # Per bank write bursts
system.mem_ctrls3.numRdRetry                        0                       # Number of times read queue was full causing retry
system.mem_ctrls3.numWrRetry                       78                       # Number of times write queue was full causing retry
system.mem_ctrls3.totGap                  68424298000                       # Total gap between requests
system.mem_ctrls3.readPktSize::0                    0                       # Read request sizes (log2)
system.mem_ctrls3.readPktSize::1                    0                       # Read request sizes (log2)
system.mem_ctrls3.readPktSize::2                    0                       # Read request sizes (log2)
[...]
system.ruby.L2Cache_Controller.IM.Mem_Data::total       190281                      
system.ruby.L2Cache_Controller.SS_MB.Exclusive_Unblock |         253     83.77%     83.77% |           6      1.99%     85.76% |           3      0.99%     86.75% |           6      1.99%     88.74% |           0      0.00%     88.74% |           1      0.33%     89.07% |           1      0.33%     89.40% |           0      0.00%     89.40% |           0      0.00%     89.40% |           1      0.33%     89.74% |           0      0.00%     89.74% |           0      0.00%     89.74% |           5      1.66%     91.39% |           0      0.00%     91.39% |           2      0.66%     92.05% |           1      0.33%     92.38% |           0      0.00%     92.38% |           0      0.00%     92.38% |          10      3.31%     95.70% |           2      0.66%     96.36% |           0      0.00%     96.36% |           0      0.00%     96.36% |           0      0.00%     96.36% |           0      0.00%     96.36% |           1      0.33%     96.69% |           0      0.00%     96.69% |           2      0.66%     97.35% |           1      0.33%     97.68% |           4      1.32%     99.01% |           1      0.33%     99.34% |           1      0.33%     99.67% |           1      0.33%    100.00%
system.ruby.L2Cache_Controller.SS_MB.Exclusive_Unblock::total          302                      
system.ruby.L2Cache_Controller.MT_MB.L1_GETS |           4     80.00%     80.00% |           0      0.00%     80.00% |           0      0.00%     80.00% |           0      0.00%     80.00% |           0      0.00%     80.00% |           0      0.00%     80.00% |           0      0.00%     80.00% |           0      0.00%     80.00% |           0      0.00%     80.00% |           0      0.00%     80.00% |           0      0.00%     80.00% |           0      0.00%     80.00% |           0      0.00%     80.00% |           0      0.00%     80.00% |           0      0.00%     80.00% |           0      0.00%     80.00% |           0      0.00%     80.00% |           1     20.00%    100.00% |           0      0.00%    100.00% |           0      0.00%    100.00% |           0      0.00%    100.00% |           0      0.00%    100.00% |           0      0.00%    100.00% |           0      0.00%    100.00% |           0      0.00%    100.00% |           0      0.00%    100.00% |           0      0.00%    100.00% |           0      0.00%    100.00% |           0      0.00%    100.00% |           0      0.00%    100.00% |           0      0.00%    100.00% |           0      0.00%    100.00%
system.ruby.L2Cache_Controller.MT_MB.L1_GETS::total            5                      
system.ruby.L2Cache_Controller.MT_MB.L1_GETX |           1    100.00%    100.00% |           0      0.00%    100.00% |           0      0.00%    100.00% |           0      0.00%    100.00% |           0      0.00%    100.00% |           0      0.00%    100.00% |           0      0.00%    100.00% |           0      0.00%    100.00% |           0      0.00%    100.00% |           0      0.00%    100.00% |           0      0.00%    100.00% |           0      0.00%    100.00% |           0      0.00%    100.00% |           0      0.00%    100.00% |           0      0.00%    100.00% |           0      0.00%    100.00% |           0      0.00%    100.00% |           0      0.00%    100.00% |           0      0.00%    100.00% |           0      0.00%    100.00% |           0      0.00%    100.00% |           0      0.00%    100.00% |           0      0.00%    100.00% |           0      0.00%    100.00% |           0      0.00%    100.00% |           0      0.00%    100.00% |           0      0.00%    100.00% |           0      0.00%    100.00% |           0      0.00%    100.00% |           0      0.00%    100.00% |           0      0.00%    100.00% |           0      0.00%    100.00%
system.ruby.L2Cache_Controller.MT_MB.L1_GETX::total            1                      
system.ruby.L2Cache_Controller.MT_MB.Exclusive_Unblock |       77551      7.07%      7.07% |       33429      3.05%     10.12% |       32743      2.99%     13.11% |       32900      3.00%     16.11% |       33153      3.02%     19.13% |       32088      2.93%     22.06% |       32003      2.92%     24.98% |       31720      2.89%     27.87% |       34008      3.10%     30.97% |       32402      2.96%     33.93% |       34353      3.13%     37.06% |       33170      3.03%     40.09% |       32737      2.99%     43.07% |       31786      2.90%     45.97% |       31821      2.90%     48.88% |       31709      2.89%     51.77% |       34314      3.13%     54.90% |       32158      2.93%     57.83% |       33011      3.01%     60.84% |       32581      2.97%     63.81% |       33076      3.02%     66.83% |       32516      2.97%     69.80% |       33058      3.02%     72.81% |       32057      2.92%     75.74% |       33694      3.07%     78.81% |       32392      2.95%     81.76% |       32891      3.00%     84.76% |       31865      2.91%     87.67% |       33211      3.03%     90.70% |       31951      2.91%     93.61% |       34331      3.13%     96.75% |       35684      3.25%    100.00%
system.ruby.L2Cache_Controller.MT_MB.Exclusive_Unblock::total      1096363                      
system.ruby.L2Cache_Controller.MT_IIB.L1_GETS |           0      0.00%      0.00% |           2     66.67%     66.67% |           1     33.33%    100.00% |           0      0.00%    100.00% |           0      0.00%    100.00% |           0      0.00%    100.00% |           0      0.00%    100.00% |           0      0.00%    100.00% |           0      0.00%    100.00% |           0      0.00%    100.00% |           0      0.00%    100.00% |           0      0.00%    100.00% |           0      0.00%    100.00% |           0      0.00%    100.00% |           0      0.00%    100.00% |           0      0.00%    100.00% |           0      0.00%    100.00% |           0      0.00%    100.00% |           0      0.00%    100.00% |           0      0.00%    100.00% |           0      0.00%    100.00% |           0      0.00%    100.00% |           0      0.00%    100.00% |           0      0.00%    100.00% |           0      0.00%    100.00% |           0      0.00%    100.00% |           0      0.00%    100.00% |           0      0.00%    100.00% |           0      0.00%    100.00% |           0      0.00%    100.00% |           0      0.00%    100.00% |           0      0.00%    100.00%
system.ruby.L2Cache_Controller.MT_IIB.L1_GETS::total            3                      
system.ruby.L2Cache_Controller.MT_IIB.WB_Data |         161     15.51%     15.51% |          30      2.89%     18.40% |          28      2.70%     21.10% |          28      2.70%     23.80% |          28      2.70%     26.49% |          28      2.70%     29.19% |          28      2.70%     31.89% |          28      2.70%     34.59% |          28      2.70%     37.28% |          28      2.70%     39.98% |          26      2.50%     42.49% |          28      2.70%     45.18% |          32      3.08%     48.27% |          28      2.70%     50.96% |          28      2.70%     53.66% |          28      2.70%     56.36% |          28      2.70%     59.06% |          28      2.70%     61.75% |          29      2.79%     64.55% |          29      2.79%     67.34% |          28      2.70%     70.04% |          28      2.70%     72.74% |          30      2.89%     75.63% |          28      2.70%     78.32% |          28      2.70%     81.02% |          28      2.70%     83.72% |          28      2.70%     86.42% |          28      2.70%     89.11% |          29      2.79%     91.91% |          28      2.70%     94.61% |          28      2.70%     97.30% |          28      2.70%    100.00%
system.ruby.L2Cache_Controller.MT_IIB.WB_Data::total         1038                      
system.ruby.L2Cache_Controller.MT_IIB.WB_Data_clean |         758     97.81%     97.81% |           3      0.39%     98.19% |           2      0.26%     98.45% |           1      0.13%     98.58% |           0      0.00%     98.58% |           0      0.00%     98.58% |           0      0.00%     98.58% |           0      0.00%     98.58% |           0      0.00%     98.58% |           0      0.00%     98.58% |           0      0.00%     98.58% |           0      0.00%     98.58% |           0      0.00%     98.58% |           0      0.00%     98.58% |           1      0.13%     98.71% |           0      0.00%     98.71% |           1      0.13%     98.84% |           4      0.52%     99.35% |           3      0.39%     99.74% |           2      0.26%    100.00% |           0      0.00%    100.00% |           0      0.00%    100.00% |           0      0.00%    100.00% |           0      0.00%    100.00% |           0      0.00%    100.00% |           0      0.00%    100.00% |           0      0.00%    100.00% |           0      0.00%    100.00% |           0      0.00%    100.00% |           0      0.00%    100.00% |           0      0.00%    100.00% |           0      0.00%    100.00%
system.ruby.L2Cache_Controller.MT_IIB.WB_Data_clean::total          775                      
system.ruby.L2Cache_Controller.MT_IIB.Unblock |           0      0.00%      0.00% |           0      0.00%      0.00% |           0      0.00%      0.00% |           0      0.00%      0.00% |           0      0.00%      0.00% |           0      0.00%      0.00% |           0      0.00%      0.00% |           0      0.00%      0.00% |           0      0.00%      0.00% |           0      0.00%      0.00% |           2     50.00%     50.00% |           0      0.00%     50.00% |           0      0.00%     50.00% |           0      0.00%     50.00% |           0      0.00%     50.00% |           0      0.00%     50.00% |           0      0.00%     50.00% |           0      0.00%     50.00% |           0      0.00%     50.00% |           0      0.00%     50.00% |           0      0.00%     50.00% |           0      0.00%     50.00% |           0      0.00%     50.00% |           0      0.00%     50.00% |           0      0.00%     50.00% |           1     25.00%     75.00% |           0      0.00%     75.00% |           0      0.00%     75.00% |           1     25.00%    100.00% |           0      0.00%    100.00% |           0      0.00%    100.00% |           0      0.00%    100.00%
system.ruby.L2Cache_Controller.MT_IIB.Unblock::total            4                      
system.ruby.L2Cache_Controller.MT_IB.WB_Data |           0      0.00%      0.00% |           0      0.00%      0.00% |           0      0.00%      0.00% |           0      0.00%      0.00% |           0      0.00%      0.00% |           0      0.00%      0.00% |           0      0.00%      0.00% |           0      0.00%      0.00% |           0      0.00%      0.00% |           0      0.00%      0.00% |           2     50.00%     50.00% |           0      0.00%     50.00% |           0      0.00%     50.00% |           0      0.00%     50.00% |           0      0.00%     50.00% |           0      0.00%     50.00% |           0      0.00%     50.00% |           0      0.00%     50.00% |           0      0.00%     50.00% |           0      0.00%     50.00% |           0      0.00%     50.00% |           0      0.00%     50.00% |           0      0.00%     50.00% |           0      0.00%     50.00% |           0      0.00%     50.00% |           1     25.00%     75.00% |           0      0.00%     75.00% |           0      0.00%     75.00% |           1     25.00%    100.00% |           0      0.00%    100.00% |           0      0.00%    100.00% |           0      0.00%    100.00%
system.ruby.L2Cache_Controller.MT_IB.WB_Data::total            4                      
system.ruby.L2Cache_Controller.MT_SB.L1_GETS |           1    100.00%    100.00% |           0      0.00%    100.00% |           0      0.00%    100.00% |           0      0.00%    100.00% |           0      0.00%    100.00% |           0      0.00%    100.00% |           0      0.00%    100.00% |           0      0.00%    100.00% |           0      0.00%    100.00% |           0      0.00%    100.00% |           0      0.00%    100.00% |           0      0.00%    100.00% |           0      0.00%    100.00% |           0      0.00%    100.00% |           0      0.00%    100.00% |           0      0.00%    100.00% |           0      0.00%    100.00% |           0      0.00%    100.00% |           0      0.00%    100.00% |           0      0.00%    100.00% |           0      0.00%    100.00% |           0      0.00%    100.00% |           0      0.00%    100.00% |           0      0.00%    100.00% |           0      0.00%    100.00% |           0      0.00%    100.00% |           0      0.00%    100.00% |           0      0.00%    100.00% |           0      0.00%    100.00% |           0      0.00%    100.00% |           0      0.00%    100.00% |           0      0.00%    100.00%
system.ruby.L2Cache_Controller.MT_SB.L1_GETS::total            1                      
system.ruby.L2Cache_Controller.MT_SB.Unblock |         919     50.69%     50.69% |          33      1.82%     52.51% |          30      1.65%     54.16% |          29      1.60%     55.76% |          28      1.54%     57.31% |          28      1.54%     58.85% |          28      1.54%     60.40% |          28      1.54%     61.94% |          28      1.54%     63.49% |          28      1.54%     65.03% |          26      1.43%     66.46% |          28      1.54%     68.01% |          32      1.77%     69.77% |          28      1.54%     71.32% |          29      1.60%     72.92% |          28      1.54%     74.46% |          29      1.60%     76.06% |          32      1.77%     77.83% |          32      1.77%     79.59% |          31      1.71%     81.30% |          28      1.54%     82.85% |          28      1.54%     84.39% |          30      1.65%     86.05% |          28      1.54%     87.59% |          28      1.54%     89.13% |          28      1.54%     90.68% |          28      1.54%     92.22% |          28      1.54%     93.77% |          29      1.60%     95.37% |          28      1.54%     96.91% |          28      1.54%     98.46% |          28      1.54%    100.00%
system.ruby.L2Cache_Controller.MT_SB.Unblock::total         1813                      
system.ruby.SimicsNetworkPortInterface_Controller.MessageSend |       76544      4.23%      4.23% |      905242     50.00%     54.23% |      210177     11.61%     65.84% |      207785     11.48%     77.31% |      203331     11.23%     88.54% |      207405     11.46%    100.00% |           0      0.00%    100.00% |           0      0.00%    100.00% |           0      0.00%    100.00% |           0      0.00%    100.00% |           0      0.00%    100.00% |           0      0.00%    100.00% |           0      0.00%    100.00% |           0      0.00%    100.00% |           0      0.00%    100.00% |           0      0.00%    100.00% |           0      0.00%    100.00% |           0      0.00%    100.00% |           0      0.00%    100.00% |           0      0.00%    100.00% |           0      0.00%    100.00% |           0      0.00%    100.00% |           0      0.00%    100.00% |           0      0.00%    100.00% |           0      0.00%    100.00% |           0      0.00%    100.00% |           0      0.00%    100.00% |           0      0.00%    100.00% |           0      0.00%    100.00% |           0      0.00%    100.00% |           0      0.00%    100.00% |           0      0.00%    100.00%
system.ruby.SimicsNetworkPortInterface_Controller.MessageSend::total      1810484                      
system.ruby.SimicsNetworkPortInterface_Controller.MessageRecv |       76544      4.23%      4.23% |      905242     50.00%     54.23% |      210177     11.61%     65.84% |      207785     11.48%     77.31% |      203331     11.23%     88.54% |      207405     11.46%    100.00% |           0      0.00%    100.00% |           0      0.00%    100.00% |           0      0.00%    100.00% |           0      0.00%    100.00% |           0      0.00%    100.00% |           0      0.00%    100.00% |           0      0.00%    100.00% |           0      0.00%    100.00% |           0      0.00%    100.00% |           0      0.00%    100.00% |           0      0.00%    100.00% |           0      0.00%    100.00% |           0      0.00%    100.00% |           0      0.00%    100.00% |           0      0.00%    100.00% |           0      0.00%    100.00% |           0      0.00%    100.00% |           0      0.00%    100.00% |           0      0.00%    100.00% |           0      0.00%    100.00% |           0      0.00%    100.00% |           0      0.00%    100.00% |           0      0.00%    100.00% |           0      0.00%    100.00% |           0      0.00%    100.00% |           0      0.00%    100.00%
system.ruby.SimicsNetworkPortInterface_Controller.MessageRecv::total      1810484                      
system.ruby.SimicsNetworkPortInterface_Controller.A.MessageSend |       76544      4.23%      4.23% |      905242     50.00%     54.23% |      210177     11.61%     65.84% |      207785     11.48%     77.31% |      203331     11.23%     88.54% |      207405     11.46%    100.00% |           0      0.00%    100.00% |           0      0.00%    100.00% |           0      0.00%    100.00% |           0      0.00%    100.00% |           0      0.00%    100.00% |           0      0.00%    100.00% |           0      0.00%    100.00% |           0      0.00%    100.00% |           0      0.00%    100.00% |           0      0.00%    100.00% |           0      0.00%    100.00% |           0      0.00%    100.00% |           0      0.00%    100.00% |           0      0.00%    100.00% |           0      0.00%    100.00% |           0      0.00%    100.00% |           0      0.00%    100.00% |           0      0.00%    100.00% |           0      0.00%    100.00% |           0      0.00%    100.00% |           0      0.00%    100.00% |           0      0.00%    100.00% |           0      0.00%    100.00% |           0      0.00%    100.00% |           0      0.00%    100.00% |           0      0.00%    100.00%
system.ruby.SimicsNetworkPortInterface_Controller.A.MessageSend::total      1810484                      
system.ruby.SimicsNetworkPortInterface_Controller.A.MessageRecv |       76544      4.23%      4.23% |      905242     50.00%     54.23% |      210177     11.61%     65.84% |      207785     11.48%     77.31% |      203331     11.23%     88.54% |      207405     11.46%    100.00% |           0      0.00%    100.00% |           0      0.00%    100.00% |           0      0.00%    100.00% |           0      0.00%    100.00% |           0      0.00%    100.00% |           0      0.00%    100.00% |           0      0.00%    100.00% |           0      0.00%    100.00% |           0      0.00%    100.00% |           0      0.00%    100.00% |           0      0.00%    100.00% |           0      0.00%    100.00% |           0      0.00%    100.00% |           0      0.00%    100.00% |           0      0.00%    100.00% |           0      0.00%    100.00% |           0      0.00%    100.00% |           0      0.00%    100.00% |           0      0.00%    100.00% |           0      0.00%    100.00% |           0      0.00%    100.00% |           0      0.00%    100.00% |           0      0.00%    100.00% |           0      0.00%    100.00% |           0      0.00%    100.00% |           0      0.00%    100.00%
system.ruby.SimicsNetworkPortInterface_Controller.A.MessageRecv::total      1810484                      
system.switch_cpus.kern.inst.arm                    0                       # number of arm instructions executed
system.switch_cpus.kern.inst.quiesce                0                       # number of quiesce instructions executed

---------- End Simulation Statistics   ----------
