
---------- Begin Simulation Statistics ----------
sim_seconds                                  0.154060                       # Number of seconds simulated
sim_ticks                                154060361000                       # Number of ticks simulated
final_tick                               5330228439500                       # Number of ticks from beginning of simulation (restored from checkpoints and never reset)
sim_freq                                 1000000000000                       # Frequency of simulated ticks
host_inst_rate                                  79021                       # Simulator instruction rate (inst/s)
host_op_rate                                   150328                       # Simulator op (including micro ops) rate (op/s)
host_tick_rate                              187641144                       # Simulator tick rate (ticks/s)
host_mem_usage                                4532696                       # Number of bytes of host memory used
host_seconds                                   821.04                       # Real time elapsed on the host
sim_insts                                    64879516                       # Number of instructions simulated
sim_ops                                     123425143                       # Number of ops (including micro ops) simulated
system.voltage_domain.voltage                       1                       # Voltage in Volts
system.clk_domain.clock                           500                       # Clock period in ticks
system.mem_ctrls0.bytes_read::ruby.dir_cntrl0     25272128                       # Number of bytes read from this memory
system.mem_ctrls0.bytes_read::total          25272128                       # Number of bytes read from this memory
system.mem_ctrls0.bytes_written::ruby.dir_cntrl0     21424320                       # Number of bytes written to this memory
system.mem_ctrls0.bytes_written::total       21424320                       # Number of bytes written to this memory
system.mem_ctrls0.num_reads::ruby.dir_cntrl0       394877                       # Number of read requests responded to by this memory
system.mem_ctrls0.num_reads::total             394877                       # Number of read requests responded to by this memory
system.mem_ctrls0.num_writes::ruby.dir_cntrl0       334755                       # Number of write requests responded to by this memory
system.mem_ctrls0.num_writes::total            334755                       # Number of write requests responded to by this memory
system.mem_ctrls0.bw_read::ruby.dir_cntrl0    164040431                       # Total read bandwidth from this memory (bytes/s)
system.mem_ctrls0.bw_read::total            164040431                       # Total read bandwidth from this memory (bytes/s)
system.mem_ctrls0.bw_write::ruby.dir_cntrl0    139064454                       # Write bandwidth from this memory (bytes/s)
system.mem_ctrls0.bw_write::total           139064454                       # Write bandwidth from this memory (bytes/s)
system.mem_ctrls0.bw_total::ruby.dir_cntrl0    303104885                       # Total bandwidth to/from this memory (bytes/s)
system.mem_ctrls0.bw_total::total           303104885                       # Total bandwidth to/from this memory (bytes/s)
system.mem_ctrls0.readReqs                     394878                       # Number of read requests accepted
system.mem_ctrls0.writeReqs                    334755                       # Number of write requests accepted
system.mem_ctrls0.readBursts                   394878                       # Number of DRAM read bursts, including those serviced by the write queue
system.mem_ctrls0.writeBursts                  334755                       # Number of DRAM write bursts, including those merged in the write queue
system.mem_ctrls0.bytesReadDRAM              25270784                       # Total number of bytes read from DRAM
system.mem_ctrls0.bytesReadWrQ                   1408                       # Total number of bytes read from write queue
system.mem_ctrls0.bytesWritten               21424128                       # Total number of bytes written to DRAM
system.mem_ctrls0.bytesReadSys               25272192                       # Total read bytes from the system interface side
system.mem_ctrls0.bytesWrittenSys            21424320                       # Total written bytes from the system interface side
system.mem_ctrls0.servicedByWrQ                    22                       # Number of DRAM read bursts serviced by the write queue
system.mem_ctrls0.mergedWrBursts                    0                       # Number of DRAM write bursts merged with an existing one
system.mem_ctrls0.neitherReadNorWriteReqs            0                       # Number of requests that are neither read nor write
system.mem_ctrls0.perBankRdBursts::0            24366                       # Per bank write bursts
system.mem_ctrls0.perBankRdBursts::1            25085                       # Per bank write bursts
system.mem_ctrls0.perBankRdBursts::2            24647                       # Per bank write bursts
system.mem_ctrls0.perBankRdBursts::3            24955                       # Per bank write bursts
system.mem_ctrls0.perBankRdBursts::4            24586                       # Per bank write bursts
system.mem_ctrls0.perBankRdBursts::5            24930                       # Per bank write bursts
system.mem_ctrls0.perBankRdBursts::6            24976                       # Per bank write bursts
system.mem_ctrls0.perBankRdBursts::7            24754                       # Per bank write bursts
system.mem_ctrls0.perBankRdBursts::8            24660                       # Per bank write bursts
system.mem_ctrls0.perBankRdBursts::9            24787                       # Per bank write bursts
system.mem_ctrls0.perBankRdBursts::10           24578                       # Per bank write bursts
system.mem_ctrls0.perBankRdBursts::11           25069                       # Per bank write bursts
system.mem_ctrls0.perBankRdBursts::12           24331                       # Per bank write bursts
system.mem_ctrls0.perBankRdBursts::13           24249                       # Per bank write bursts
system.mem_ctrls0.perBankRdBursts::14           24411                       # Per bank write bursts
system.mem_ctrls0.perBankRdBursts::15           24472                       # Per bank write bursts
system.mem_ctrls0.perBankWrBursts::0            20954                       # Per bank write bursts
system.mem_ctrls0.perBankWrBursts::1            20841                       # Per bank write bursts
system.mem_ctrls0.perBankWrBursts::2            20846                       # Per bank write bursts
system.mem_ctrls0.perBankWrBursts::3            21134                       # Per bank write bursts
system.mem_ctrls0.perBankWrBursts::4            20756                       # Per bank write bursts
system.mem_ctrls0.perBankWrBursts::5            21059                       # Per bank write bursts
system.mem_ctrls0.perBankWrBursts::6            21085                       # Per bank write bursts
system.mem_ctrls0.perBankWrBursts::7            21046                       # Per bank write bursts
system.mem_ctrls0.perBankWrBursts::8            21121                       # Per bank write bursts
system.mem_ctrls0.perBankWrBursts::9            20920                       # Per bank write bursts
system.mem_ctrls0.perBankWrBursts::10           20839                       # Per bank write bursts
system.mem_ctrls0.perBankWrBursts::11           20875                       # Per bank write bursts
system.mem_ctrls0.perBankWrBursts::12           20647                       # Per bank write bursts
system.mem_ctrls0.perBankWrBursts::13           20914                       # Per bank write bursts
system.mem_ctrls0.perBankWrBursts::14           20919                       # Per bank write bursts
system.mem_ctrls0.perBankWrBursts::15           20796                       # Per bank write bursts
system.mem_ctrls0.numRdRetry                    74554                       # Number of times read queue was full causing retry
system.mem_ctrls0.numWrRetry                    13139                       # Number of times write queue was full causing retry
system.mem_ctrls0.totGap                 154060097500                       # Total gap between requests
system.mem_ctrls0.readPktSize::0                    0                       # Read request sizes (log2)
system.mem_ctrls0.readPktSize::1                    0                       # Read request sizes (log2)
system.mem_ctrls0.readPktSize::2                    0                       # Read request sizes (log2)
system.mem_ctrls0.readPktSize::3                    0                       # Read request sizes (log2)
system.mem_ctrls0.readPktSize::4                    0                       # Read request sizes (log2)
system.mem_ctrls0.readPktSize::5                    0                       # Read request sizes (log2)
system.mem_ctrls0.readPktSize::6               394878                       # Read request sizes (log2)
system.mem_ctrls0.writePktSize::0                   0                       # Write request sizes (log2)
system.mem_ctrls0.writePktSize::1                   0                       # Write request sizes (log2)
system.mem_ctrls0.writePktSize::2                   0                       # Write request sizes (log2)
system.mem_ctrls0.writePktSize::3                   0                       # Write request sizes (log2)
system.mem_ctrls0.writePktSize::4                   0                       # Write request sizes (log2)
system.mem_ctrls0.writePktSize::5                   0                       # Write request sizes (log2)
system.mem_ctrls0.writePktSize::6              334755                       # Write request sizes (log2)
system.mem_ctrls0.rdQLenPdf::0                 206929                       # What read queue length does an incoming req see
system.mem_ctrls0.rdQLenPdf::1                   9041                       # What read queue length does an incoming req see
system.mem_ctrls0.rdQLenPdf::2                   6557                       # What read queue length does an incoming req see
system.mem_ctrls0.rdQLenPdf::3                   4468                       # What read queue length does an incoming req see
system.mem_ctrls0.rdQLenPdf::4                   4748                       # What read queue length does an incoming req see
system.mem_ctrls0.rdQLenPdf::5                   4807                       # What read queue length does an incoming req see
system.mem_ctrls0.rdQLenPdf::6                   4638                       # What read queue length does an incoming req see
system.mem_ctrls0.rdQLenPdf::7                   4466                       # What read queue length does an incoming req see
system.mem_ctrls0.rdQLenPdf::8                   4259                       # What read queue length does an incoming req see
system.mem_ctrls0.rdQLenPdf::9                   3891                       # What read queue length does an incoming req see
system.mem_ctrls0.rdQLenPdf::10                  3747                       # What read queue length does an incoming req see
system.mem_ctrls0.rdQLenPdf::11                  3621                       # What read queue length does an incoming req see
system.mem_ctrls0.rdQLenPdf::12                  3503                       # What read queue length does an incoming req see
system.mem_ctrls0.rdQLenPdf::13                  3354                       # What read queue length does an incoming req see
system.mem_ctrls0.rdQLenPdf::14                  3224                       # What read queue length does an incoming req see
system.mem_ctrls0.rdQLenPdf::15                  3149                       # What read queue length does an incoming req see
system.mem_ctrls0.rdQLenPdf::16                  3142                       # What read queue length does an incoming req see
system.mem_ctrls0.rdQLenPdf::17                  3047                       # What read queue length does an incoming req see
system.mem_ctrls0.rdQLenPdf::18                  2996                       # What read queue length does an incoming req see
system.mem_ctrls0.rdQLenPdf::19                  2845                       # What read queue length does an incoming req see
system.mem_ctrls0.rdQLenPdf::20                  2773                       # What read queue length does an incoming req see
system.mem_ctrls0.rdQLenPdf::21                  2603                       # What read queue length does an incoming req see
system.mem_ctrls0.rdQLenPdf::22                  2523                       # What read queue length does an incoming req see
system.mem_ctrls0.rdQLenPdf::23                  2529                       # What read queue length does an incoming req see
system.mem_ctrls0.rdQLenPdf::24                  2484                       # What read queue length does an incoming req see
system.mem_ctrls0.rdQLenPdf::25                  2489                       # What read queue length does an incoming req see
system.mem_ctrls0.rdQLenPdf::26                  2604                       # What read queue length does an incoming req see
system.mem_ctrls0.rdQLenPdf::27                  2686                       # What read queue length does an incoming req see
system.mem_ctrls0.rdQLenPdf::28                  2702                       # What read queue length does an incoming req see
system.mem_ctrls0.rdQLenPdf::29                  2824                       # What read queue length does an incoming req see
system.mem_ctrls0.rdQLenPdf::30                  3115                       # What read queue length does an incoming req see
system.mem_ctrls0.rdQLenPdf::31                 79092                       # What read queue length does an incoming req see
system.mem_ctrls0.wrQLenPdf::0                  49676                       # What write queue length does an incoming req see
system.mem_ctrls0.wrQLenPdf::1                  54104                       # What write queue length does an incoming req see
system.mem_ctrls0.wrQLenPdf::2                  56217                       # What write queue length does an incoming req see
system.mem_ctrls0.wrQLenPdf::3                  56237                       # What write queue length does an incoming req see
system.mem_ctrls0.wrQLenPdf::4                  56481                       # What write queue length does an incoming req see
system.mem_ctrls0.wrQLenPdf::5                  15441                       # What write queue length does an incoming req see
system.mem_ctrls0.wrQLenPdf::6                  18221                       # What write queue length does an incoming req see
system.mem_ctrls0.wrQLenPdf::7                  28378                       # What write queue length does an incoming req see
system.mem_ctrls0.bytesPerActivate::samples       215831                       # Bytes accessed per row activation
system.mem_ctrls0.bytesPerActivate::mean   216.348532                       # Bytes accessed per row activation
system.mem_ctrls0.bytesPerActivate::gmean   164.180458                       # Bytes accessed per row activation
system.mem_ctrls0.bytesPerActivate::stdev   168.100126                       # Bytes accessed per row activation
system.mem_ctrls0.bytesPerActivate::0-127        68318     31.65%     31.65% # Bytes accessed per row activation
system.mem_ctrls0.bytesPerActivate::128-255        55893     25.90%     57.55% # Bytes accessed per row activation
system.mem_ctrls0.bytesPerActivate::256-383        69156     32.04%     89.59% # Bytes accessed per row activation
system.mem_ctrls0.bytesPerActivate::384-511         9594      4.45%     94.04% # Bytes accessed per row activation
system.mem_ctrls0.bytesPerActivate::512-639         5762      2.67%     96.71% # Bytes accessed per row activation
system.mem_ctrls0.bytesPerActivate::640-767         2849      1.32%     98.03% # Bytes accessed per row activation
system.mem_ctrls0.bytesPerActivate::768-895         1474      0.68%     98.71% # Bytes accessed per row activation
system.mem_ctrls0.bytesPerActivate::896-1023         1039      0.48%     99.19% # Bytes accessed per row activation
system.mem_ctrls0.bytesPerActivate::1024-1151         1746      0.81%    100.00% # Bytes accessed per row activation
system.mem_ctrls0.bytesPerActivate::total       215831                       # Bytes accessed per row activation
system.mem_ctrls0.rdPerTurnAround::samples        51437                       # Reads before turning the bus around for writes
system.mem_ctrls0.rdPerTurnAround::mean      7.676497                       # Reads before turning the bus around for writes
system.mem_ctrls0.rdPerTurnAround::stdev    18.679401                       # Reads before turning the bus around for writes
system.mem_ctrls0.rdPerTurnAround::0-127        51429     99.98%     99.98% # Reads before turning the bus around for writes
system.mem_ctrls0.rdPerTurnAround::128-255            7      0.01%    100.00% # Reads before turning the bus around for writes
system.mem_ctrls0.rdPerTurnAround::3968-4095            1      0.00%    100.00% # Reads before turning the bus around for writes
system.mem_ctrls0.rdPerTurnAround::total        51437                       # Reads before turning the bus around for writes
system.mem_ctrls0.wrPerTurnAround::samples        51436                       # Writes before turning the bus around for reads
system.mem_ctrls0.wrPerTurnAround::mean      6.508088                       # Writes before turning the bus around for reads
system.mem_ctrls0.wrPerTurnAround::gmean     5.983526                       # Writes before turning the bus around for reads
system.mem_ctrls0.wrPerTurnAround::stdev     3.264258                       # Writes before turning the bus around for reads
system.mem_ctrls0.wrPerTurnAround::4-7          41973     81.60%     81.60% # Writes before turning the bus around for reads
system.mem_ctrls0.wrPerTurnAround::8-11          3128      6.08%     87.68% # Writes before turning the bus around for reads
system.mem_ctrls0.wrPerTurnAround::12-15         3711      7.21%     94.90% # Writes before turning the bus around for reads
system.mem_ctrls0.wrPerTurnAround::16-19         2624      5.10%    100.00% # Writes before turning the bus around for reads
system.mem_ctrls0.wrPerTurnAround::total        51436                       # Writes before turning the bus around for reads
system.mem_ctrls0.totQLat                 51823245175                       # Total ticks spent queuing
system.mem_ctrls0.totMemAccLat            59226795175                       # Total ticks spent from burst creation until serviced by the DRAM
system.mem_ctrls0.totBusLat                1974280000                       # Total ticks spent in databus transfers
system.mem_ctrls0.avgQLat                   131245.94                       # Average queueing delay per DRAM burst
system.mem_ctrls0.avgBusLat                   5000.00                       # Average bus latency per DRAM burst
system.mem_ctrls0.avgMemAccLat              149995.94                       # Average memory access latency per DRAM burst
system.mem_ctrls0.avgRdBW                      164.03                       # Average DRAM read bandwidth in MiByte/s
system.mem_ctrls0.avgWrBW                      139.06                       # Average achieved write bandwidth in MiByte/s
system.mem_ctrls0.avgRdBWSys                   164.04                       # Average system read bandwidth in MiByte/s
system.mem_ctrls0.avgWrBWSys                   139.06                       # Average system write bandwidth in MiByte/s
system.mem_ctrls0.peakBW                     12800.00                       # Theoretical peak bandwidth in MiByte/s
system.mem_ctrls0.busUtil                        2.37                       # Data bus utilization in percentage
system.mem_ctrls0.busUtilRead                    1.28                       # Data bus utilization in percentage for reads
system.mem_ctrls0.busUtilWrite                   1.09                       # Data bus utilization in percentage for writes
system.mem_ctrls0.avgRdQLen                      1.35                       # Average read queue length when enqueuing
system.mem_ctrls0.avgWrQLen                      2.98                       # Average write queue length when enqueuing
system.mem_ctrls0.readRowHits                  292998                       # Number of row buffer hits during reads
system.mem_ctrls0.writeRowHits                 220776                       # Number of row buffer hits during writes
system.mem_ctrls0.readRowHitRate                74.20                       # Row buffer hit rate for reads
system.mem_ctrls0.writeRowHitRate               65.95                       # Row buffer hit rate for writes
system.mem_ctrls0.avgGap                    211147.38                       # Average gap between requests
system.mem_ctrls0.pageHitRate                   70.42                       # Row buffer hit rate, read and write combined
system.mem_ctrls0.memoryStateTime::IDLE   26565928500                       # Time in different power states
system.mem_ctrls0.memoryStateTime::REF     5144360000                       # Time in different power states
system.mem_ctrls0.memoryStateTime::PRE_PDN            0                       # Time in different power states
system.mem_ctrls0.memoryStateTime::ACT   122348830500                       # Time in different power states
system.mem_ctrls0.memoryStateTime::ACT_PDN            0                       # Time in different power states
system.mem_ctrls0.actEnergy::0              821840040                       # Energy for activate commands per rank (pJ)
system.mem_ctrls0.actEnergy::1              809827200                       # Energy for activate commands per rank (pJ)
system.mem_ctrls0.preEnergy::0              448424625                       # Energy for precharge commands per rank (pJ)
system.mem_ctrls0.preEnergy::1              441870000                       # Energy for precharge commands per rank (pJ)
system.mem_ctrls0.readEnergy::0            1546724400                       # Energy for read commands per rank (pJ)
system.mem_ctrls0.readEnergy::1            1533097800                       # Energy for read commands per rank (pJ)
system.mem_ctrls0.writeEnergy::0           1086819120                       # Energy for write commands per rank (pJ)
system.mem_ctrls0.writeEnergy::1           1082360880                       # Energy for write commands per rank (pJ)
system.mem_ctrls0.refreshEnergy::0        10062368160                       # Energy for refresh commands per rank (pJ)
system.mem_ctrls0.refreshEnergy::1        10062368160                       # Energy for refresh commands per rank (pJ)
system.mem_ctrls0.actBackEnergy::0        61282414845                       # Energy for active background per rank (pJ)
system.mem_ctrls0.actBackEnergy::1        61026011460                       # Energy for active background per rank (pJ)
system.mem_ctrls0.preBackEnergy::0        38678897250                       # Energy for precharge background per rank (pJ)
system.mem_ctrls0.preBackEnergy::1        38903812500                       # Energy for precharge background per rank (pJ)
system.mem_ctrls0.totalEnergy::0         113927488440                       # Total energy per rank (pJ)
system.mem_ctrls0.totalEnergy::1         113859348000                       # Total energy per rank (pJ)
system.mem_ctrls0.averagePower::0          739.505557                       # Core power per rank (mW)
system.mem_ctrls0.averagePower::1          739.063256                       # Core power per rank (mW)
system.mem_ctrls1.bytes_read::ruby.dir_cntrl1     24511424                       # Number of bytes read from this memory
system.mem_ctrls1.bytes_read::total          24511424                       # Number of bytes read from this memory
system.mem_ctrls1.bytes_written::ruby.dir_cntrl1     20686400                       # Number of bytes written to this memory
system.mem_ctrls1.bytes_written::total       20686400                       # Number of bytes written to this memory
system.mem_ctrls1.num_reads::ruby.dir_cntrl1       382991                       # Number of read requests responded to by this memory
system.mem_ctrls1.num_reads::total             382991                       # Number of read requests responded to by this memory
system.mem_ctrls1.num_writes::ruby.dir_cntrl1       323225                       # Number of write requests responded to by this memory
system.mem_ctrls1.num_writes::total            323225                       # Number of write requests responded to by this memory
system.mem_ctrls1.bw_read::ruby.dir_cntrl1    159102730                       # Total read bandwidth from this memory (bytes/s)
system.mem_ctrls1.bw_read::total            159102730                       # Total read bandwidth from this memory (bytes/s)
system.mem_ctrls1.bw_write::ruby.dir_cntrl1    134274643                       # Write bandwidth from this memory (bytes/s)
system.mem_ctrls1.bw_write::total           134274643                       # Write bandwidth from this memory (bytes/s)
system.mem_ctrls1.bw_total::ruby.dir_cntrl1    293377373                       # Total bandwidth to/from this memory (bytes/s)
system.mem_ctrls1.bw_total::total           293377373                       # Total bandwidth to/from this memory (bytes/s)
system.mem_ctrls1.readReqs                     382991                       # Number of read requests accepted
system.mem_ctrls1.writeReqs                    323225                       # Number of write requests accepted
system.mem_ctrls1.readBursts                   382991                       # Number of DRAM read bursts, including those serviced by the write queue
system.mem_ctrls1.writeBursts                  323225                       # Number of DRAM write bursts, including those merged in the write queue
system.mem_ctrls1.bytesReadDRAM              24510336                       # Total number of bytes read from DRAM
system.mem_ctrls1.bytesReadWrQ                   1088                       # Total number of bytes read from write queue
system.mem_ctrls1.bytesWritten               20686208                       # Total number of bytes written to DRAM
system.mem_ctrls1.bytesReadSys               24511424                       # Total read bytes from the system interface side
system.mem_ctrls1.bytesWrittenSys            20686400                       # Total written bytes from the system interface side
system.mem_ctrls1.servicedByWrQ                    17                       # Number of DRAM read bursts serviced by the write queue
system.mem_ctrls1.mergedWrBursts                    0                       # Number of DRAM write bursts merged with an existing one
system.mem_ctrls1.neitherReadNorWriteReqs            0                       # Number of requests that are neither read nor write
system.mem_ctrls1.perBankRdBursts::0            23652                       # Per bank write bursts
system.mem_ctrls1.perBankRdBursts::1            24330                       # Per bank write bursts
system.mem_ctrls1.perBankRdBursts::2            23897                       # Per bank write bursts
system.mem_ctrls1.perBankRdBursts::3            24204                       # Per bank write bursts
system.mem_ctrls1.perBankRdBursts::4            23873                       # Per bank write bursts
system.mem_ctrls1.perBankRdBursts::5            24189                       # Per bank write bursts
system.mem_ctrls1.perBankRdBursts::6            24234                       # Per bank write bursts
system.mem_ctrls1.perBankRdBursts::7            24044                       # Per bank write bursts
system.mem_ctrls1.perBankRdBursts::8            23920                       # Per bank write bursts
system.mem_ctrls1.perBankRdBursts::9            24040                       # Per bank write bursts
system.mem_ctrls1.perBankRdBursts::10           23809                       # Per bank write bursts
system.mem_ctrls1.perBankRdBursts::11           24346                       # Per bank write bursts
system.mem_ctrls1.perBankRdBursts::12           23594                       # Per bank write bursts
system.mem_ctrls1.perBankRdBursts::13           23492                       # Per bank write bursts
system.mem_ctrls1.perBankRdBursts::14           23598                       # Per bank write bursts
system.mem_ctrls1.perBankRdBursts::15           23752                       # Per bank write bursts
system.mem_ctrls1.perBankWrBursts::0            20233                       # Per bank write bursts
system.mem_ctrls1.perBankWrBursts::1            20137                       # Per bank write bursts
system.mem_ctrls1.perBankWrBursts::2            20138                       # Per bank write bursts
system.mem_ctrls1.perBankWrBursts::3            20423                       # Per bank write bursts
system.mem_ctrls1.perBankWrBursts::4            20046                       # Per bank write bursts
system.mem_ctrls1.perBankWrBursts::5            20349                       # Per bank write bursts
system.mem_ctrls1.perBankWrBursts::6            20348                       # Per bank write bursts
system.mem_ctrls1.perBankWrBursts::7            20316                       # Per bank write bursts
system.mem_ctrls1.perBankWrBursts::8            20394                       # Per bank write bursts
system.mem_ctrls1.perBankWrBursts::9            20197                       # Per bank write bursts
system.mem_ctrls1.perBankWrBursts::10           20127                       # Per bank write bursts
system.mem_ctrls1.perBankWrBursts::11           20160                       # Per bank write bursts
system.mem_ctrls1.perBankWrBursts::12           19930                       # Per bank write bursts
system.mem_ctrls1.perBankWrBursts::13           20189                       # Per bank write bursts
system.mem_ctrls1.perBankWrBursts::14           20153                       # Per bank write bursts
system.mem_ctrls1.perBankWrBursts::15           20082                       # Per bank write bursts
system.mem_ctrls1.numRdRetry                    50276                       # Number of times read queue was full causing retry
system.mem_ctrls1.numWrRetry                    11329                       # Number of times write queue was full causing retry
system.mem_ctrls1.totGap                 154059606500                       # Total gap between requests
system.mem_ctrls1.readPktSize::0                    0                       # Read request sizes (log2)
system.mem_ctrls1.readPktSize::1                    0                       # Read request sizes (log2)
system.mem_ctrls1.readPktSize::2                    0                       # Read request sizes (log2)
system.mem_ctrls1.readPktSize::3                    0                       # Read request sizes (log2)
system.mem_ctrls1.readPktSize::4                    0                       # Read request sizes (log2)
system.mem_ctrls1.readPktSize::5                    0                       # Read request sizes (log2)
system.mem_ctrls1.readPktSize::6               382991                       # Read request sizes (log2)
system.mem_ctrls1.writePktSize::0                   0                       # Write request sizes (log2)
system.mem_ctrls1.writePktSize::1                   0                       # Write request sizes (log2)
system.mem_ctrls1.writePktSize::2                   0                       # Write request sizes (log2)
system.mem_ctrls1.writePktSize::3                   0                       # Write request sizes (log2)
system.mem_ctrls1.writePktSize::4                   0                       # Write request sizes (log2)
system.mem_ctrls1.writePktSize::5                   0                       # Write request sizes (log2)
system.mem_ctrls1.writePktSize::6              323225                       # Write request sizes (log2)
system.mem_ctrls1.rdQLenPdf::0                 202766                       # What read queue length does an incoming req see
system.mem_ctrls1.rdQLenPdf::1                   4913                       # What read queue length does an incoming req see
system.mem_ctrls1.rdQLenPdf::2                   4794                       # What read queue length does an incoming req see
system.mem_ctrls1.rdQLenPdf::3                   5246                       # What read queue length does an incoming req see
system.mem_ctrls1.rdQLenPdf::4                   5525                       # What read queue length does an incoming req see
system.mem_ctrls1.rdQLenPdf::5                   5724                       # What read queue length does an incoming req see
system.mem_ctrls1.rdQLenPdf::6                   5545                       # What read queue length does an incoming req see
system.mem_ctrls1.rdQLenPdf::7                   5291                       # What read queue length does an incoming req see
system.mem_ctrls1.rdQLenPdf::8                   5174                       # What read queue length does an incoming req see
system.mem_ctrls1.rdQLenPdf::9                   4752                       # What read queue length does an incoming req see
system.mem_ctrls1.rdQLenPdf::10                  4665                       # What read queue length does an incoming req see
system.mem_ctrls1.rdQLenPdf::11                  4506                       # What read queue length does an incoming req see
system.mem_ctrls1.rdQLenPdf::12                  4268                       # What read queue length does an incoming req see
system.mem_ctrls1.rdQLenPdf::13                  4042                       # What read queue length does an incoming req see
system.mem_ctrls1.rdQLenPdf::14                  4010                       # What read queue length does an incoming req see
system.mem_ctrls1.rdQLenPdf::15                  3947                       # What read queue length does an incoming req see
system.mem_ctrls1.rdQLenPdf::16                  3939                       # What read queue length does an incoming req see
system.mem_ctrls1.rdQLenPdf::17                  3843                       # What read queue length does an incoming req see
system.mem_ctrls1.rdQLenPdf::18                  3808                       # What read queue length does an incoming req see
system.mem_ctrls1.rdQLenPdf::19                  3716                       # What read queue length does an incoming req see
system.mem_ctrls1.rdQLenPdf::20                  3640                       # What read queue length does an incoming req see
system.mem_ctrls1.rdQLenPdf::21                  3430                       # What read queue length does an incoming req see
system.mem_ctrls1.rdQLenPdf::22                  3344                       # What read queue length does an incoming req see
system.mem_ctrls1.rdQLenPdf::23                  3222                       # What read queue length does an incoming req see
system.mem_ctrls1.rdQLenPdf::24                  3166                       # What read queue length does an incoming req see
system.mem_ctrls1.rdQLenPdf::25                  3144                       # What read queue length does an incoming req see
system.mem_ctrls1.rdQLenPdf::26                  3220                       # What read queue length does an incoming req see
system.mem_ctrls1.rdQLenPdf::27                  3279                       # What read queue length does an incoming req see
system.mem_ctrls1.rdQLenPdf::28                  3470                       # What read queue length does an incoming req see
system.mem_ctrls1.rdQLenPdf::29                  3590                       # What read queue length does an incoming req see
system.mem_ctrls1.rdQLenPdf::30                  3892                       # What read queue length does an incoming req see
system.mem_ctrls1.rdQLenPdf::31                 55103                       # What read queue length does an incoming req see
system.mem_ctrls1.wrQLenPdf::0                  48005                       # What write queue length does an incoming req see
system.mem_ctrls1.wrQLenPdf::1                  52876                       # What write queue length does an incoming req see
system.mem_ctrls1.wrQLenPdf::2                  55002                       # What write queue length does an incoming req see
system.mem_ctrls1.wrQLenPdf::3                  55452                       # What write queue length does an incoming req see
system.mem_ctrls1.wrQLenPdf::4                  55558                       # What write queue length does an incoming req see
system.mem_ctrls1.wrQLenPdf::5                  15396                       # What write queue length does an incoming req see
system.mem_ctrls1.wrQLenPdf::6                  16857                       # What write queue length does an incoming req see
system.mem_ctrls1.wrQLenPdf::7                  24079                       # What write queue length does an incoming req see
system.mem_ctrls1.bytesPerActivate::samples       187603                       # Bytes accessed per row activation
system.mem_ctrls1.bytesPerActivate::mean   240.912821                       # Bytes accessed per row activation
system.mem_ctrls1.bytesPerActivate::gmean   189.380423                       # Bytes accessed per row activation
system.mem_ctrls1.bytesPerActivate::stdev   172.792099                       # Bytes accessed per row activation
system.mem_ctrls1.bytesPerActivate::0-127        40569     21.62%     21.62% # Bytes accessed per row activation
system.mem_ctrls1.bytesPerActivate::128-255        54587     29.10%     50.72% # Bytes accessed per row activation
system.mem_ctrls1.bytesPerActivate::256-383        69239     36.91%     87.63% # Bytes accessed per row activation
system.mem_ctrls1.bytesPerActivate::384-511         9453      5.04%     92.67% # Bytes accessed per row activation
system.mem_ctrls1.bytesPerActivate::512-639         6206      3.31%     95.98% # Bytes accessed per row activation
system.mem_ctrls1.bytesPerActivate::640-767         2754      1.47%     97.44% # Bytes accessed per row activation
system.mem_ctrls1.bytesPerActivate::768-895         1572      0.84%     98.28% # Bytes accessed per row activation
system.mem_ctrls1.bytesPerActivate::896-1023         1044      0.56%     98.84% # Bytes accessed per row activation
system.mem_ctrls1.bytesPerActivate::1024-1151         2179      1.16%    100.00% # Bytes accessed per row activation
system.mem_ctrls1.bytesPerActivate::total       187603                       # Bytes accessed per row activation
system.mem_ctrls1.rdPerTurnAround::samples        49834                       # Reads before turning the bus around for writes
system.mem_ctrls1.rdPerTurnAround::mean      7.684753                       # Reads before turning the bus around for writes
system.mem_ctrls1.rdPerTurnAround::stdev    15.349570                       # Reads before turning the bus around for writes
system.mem_ctrls1.rdPerTurnAround::0-127        49828     99.99%     99.99% # Reads before turning the bus around for writes
system.mem_ctrls1.rdPerTurnAround::128-255            4      0.01%    100.00% # Reads before turning the bus around for writes
system.mem_ctrls1.rdPerTurnAround::1152-1279            1      0.00%    100.00% # Reads before turning the bus around for writes
system.mem_ctrls1.rdPerTurnAround::2816-2943            1      0.00%    100.00% # Reads before turning the bus around for writes
system.mem_ctrls1.rdPerTurnAround::total        49834                       # Reads before turning the bus around for writes
system.mem_ctrls1.wrPerTurnAround::samples        49834                       # Writes before turning the bus around for reads
system.mem_ctrls1.wrPerTurnAround::mean      6.485973                       # Writes before turning the bus around for reads
system.mem_ctrls1.wrPerTurnAround::gmean     5.973931                       # Writes before turning the bus around for reads
system.mem_ctrls1.wrPerTurnAround::stdev     3.214287                       # Writes before turning the bus around for reads
system.mem_ctrls1.wrPerTurnAround::4-7          40367     81.00%     81.00% # Writes before turning the bus around for reads
system.mem_ctrls1.wrPerTurnAround::8-11          3724      7.47%     88.48% # Writes before turning the bus around for reads
system.mem_ctrls1.wrPerTurnAround::12-15         3232      6.49%     94.96% # Writes before turning the bus around for reads
system.mem_ctrls1.wrPerTurnAround::16-19         2511      5.04%    100.00% # Writes before turning the bus around for reads
system.mem_ctrls1.wrPerTurnAround::total        49834                       # Writes before turning the bus around for reads
system.mem_ctrls1.totQLat                 45909448632                       # Total ticks spent queuing
system.mem_ctrls1.totMemAccLat            53090211132                       # Total ticks spent from burst creation until serviced by the DRAM
system.mem_ctrls1.totBusLat                1914870000                       # Total ticks spent in databus transfers
system.mem_ctrls1.avgQLat                   119876.15                       # Average queueing delay per DRAM burst
system.mem_ctrls1.avgBusLat                   5000.00                       # Average bus latency per DRAM burst
system.mem_ctrls1.avgMemAccLat              138626.15                       # Average memory access latency per DRAM burst
system.mem_ctrls1.avgRdBW                      159.10                       # Average DRAM read bandwidth in MiByte/s
system.mem_ctrls1.avgWrBW                      134.27                       # Average achieved write bandwidth in MiByte/s
system.mem_ctrls1.avgRdBWSys                   159.10                       # Average system read bandwidth in MiByte/s
system.mem_ctrls1.avgWrBWSys                   134.27                       # Average system write bandwidth in MiByte/s
system.mem_ctrls1.peakBW                     12800.00                       # Theoretical peak bandwidth in MiByte/s
system.mem_ctrls1.busUtil                        2.29                       # Data bus utilization in percentage
system.mem_ctrls1.busUtilRead                    1.24                       # Data bus utilization in percentage for reads
system.mem_ctrls1.busUtilWrite                   1.05                       # Data bus utilization in percentage for writes
system.mem_ctrls1.avgRdQLen                      1.31                       # Average read queue length when enqueuing
system.mem_ctrls1.avgWrQLen                      2.99                       # Average write queue length when enqueuing
system.mem_ctrls1.readRowHits                  289582                       # Number of row buffer hits during reads
system.mem_ctrls1.writeRowHits                 229008                       # Number of row buffer hits during writes
system.mem_ctrls1.readRowHitRate                75.61                       # Row buffer hit rate for reads
system.mem_ctrls1.writeRowHitRate               70.85                       # Row buffer hit rate for writes
system.mem_ctrls1.avgGap                    218148.00                       # Average gap between requests
system.mem_ctrls1.pageHitRate                   73.43                       # Row buffer hit rate, read and write combined
system.mem_ctrls1.memoryStateTime::IDLE   27041890500                       # Time in different power states
system.mem_ctrls1.memoryStateTime::REF     5144360000                       # Time in different power states
system.mem_ctrls1.memoryStateTime::PRE_PDN            0                       # Time in different power states
system.mem_ctrls1.memoryStateTime::ACT   121872765750                       # Time in different power states
system.mem_ctrls1.memoryStateTime::ACT_PDN            0                       # Time in different power states
system.mem_ctrls1.actEnergy::0              714994560                       # Energy for activate commands per rank (pJ)
system.mem_ctrls1.actEnergy::1              703284120                       # Energy for activate commands per rank (pJ)
system.mem_ctrls1.preEnergy::0              390126000                       # Energy for precharge commands per rank (pJ)
system.mem_ctrls1.preEnergy::1              383736375                       # Energy for precharge commands per rank (pJ)
system.mem_ctrls1.readEnergy::0            1500883800                       # Energy for read commands per rank (pJ)
system.mem_ctrls1.readEnergy::1            1486243200                       # Energy for read commands per rank (pJ)
system.mem_ctrls1.writeEnergy::0           1049695200                       # Energy for write commands per rank (pJ)
system.mem_ctrls1.writeEnergy::1           1044783360                       # Energy for write commands per rank (pJ)
system.mem_ctrls1.refreshEnergy::0        10062368160                       # Energy for refresh commands per rank (pJ)
system.mem_ctrls1.refreshEnergy::1        10062368160                       # Energy for refresh commands per rank (pJ)
system.mem_ctrls1.actBackEnergy::0        60249720195                       # Energy for active background per rank (pJ)
system.mem_ctrls1.actBackEnergy::1        59775219135                       # Energy for active background per rank (pJ)
system.mem_ctrls1.preBackEnergy::0        39584769750                       # Energy for precharge background per rank (pJ)
system.mem_ctrls1.preBackEnergy::1        40000998750                       # Energy for precharge background per rank (pJ)
system.mem_ctrls1.totalEnergy::0         113552557665                       # Total energy per rank (pJ)
system.mem_ctrls1.totalEnergy::1         113456633100                       # Total energy per rank (pJ)
system.mem_ctrls1.averagePower::0          737.071874                       # Core power per rank (mW)
system.mem_ctrls1.averagePower::1          736.449226                       # Core power per rank (mW)
system.mem_ctrls2.bytes_read::ruby.dir_cntrl2     24511872                       # Number of bytes read from this memory
system.mem_ctrls2.bytes_read::total          24511872                       # Number of bytes read from this memory
system.mem_ctrls2.bytes_written::ruby.dir_cntrl2     20687360                       # Number of bytes written to this memory
system.mem_ctrls2.bytes_written::total       20687360                       # Number of bytes written to this memory
system.mem_ctrls2.num_reads::ruby.dir_cntrl2       382998                       # Number of read requests responded to by this memory
system.mem_ctrls2.num_reads::total             382998                       # Number of read requests responded to by this memory
system.mem_ctrls2.num_writes::ruby.dir_cntrl2       323240                       # Number of write requests responded to by this memory
system.mem_ctrls2.num_writes::total            323240                       # Number of write requests responded to by this memory
system.mem_ctrls2.bw_read::ruby.dir_cntrl2    159105638                       # Total read bandwidth from this memory (bytes/s)
system.mem_ctrls2.bw_read::total            159105638                       # Total read bandwidth from this memory (bytes/s)
system.mem_ctrls2.bw_write::ruby.dir_cntrl2    134280874                       # Write bandwidth from this memory (bytes/s)
system.mem_ctrls2.bw_write::total           134280874                       # Write bandwidth from this memory (bytes/s)
system.mem_ctrls2.bw_total::ruby.dir_cntrl2    293386512                       # Total bandwidth to/from this memory (bytes/s)
system.mem_ctrls2.bw_total::total           293386512                       # Total bandwidth to/from this memory (bytes/s)
system.mem_ctrls2.readReqs                     382998                       # Number of read requests accepted
system.mem_ctrls2.writeReqs                    323240                       # Number of write requests accepted
system.mem_ctrls2.readBursts                   382998                       # Number of DRAM read bursts, including those serviced by the write queue
system.mem_ctrls2.writeBursts                  323240                       # Number of DRAM write bursts, including those merged in the write queue
system.mem_ctrls2.bytesReadDRAM              24510656                       # Total number of bytes read from DRAM
system.mem_ctrls2.bytesReadWrQ                   1216                       # Total number of bytes read from write queue
system.mem_ctrls2.bytesWritten               20687296                       # Total number of bytes written to DRAM
system.mem_ctrls2.bytesReadSys               24511872                       # Total read bytes from the system interface side
system.mem_ctrls2.bytesWrittenSys            20687360                       # Total written bytes from the system interface side
system.mem_ctrls2.servicedByWrQ                    19                       # Number of DRAM read bursts serviced by the write queue
system.mem_ctrls2.mergedWrBursts                    0                       # Number of DRAM write bursts merged with an existing one
system.mem_ctrls2.neitherReadNorWriteReqs            0                       # Number of requests that are neither read nor write
system.mem_ctrls2.perBankRdBursts::0            23640                       # Per bank write bursts
system.mem_ctrls2.perBankRdBursts::1            24305                       # Per bank write bursts
system.mem_ctrls2.perBankRdBursts::2            23941                       # Per bank write bursts
system.mem_ctrls2.perBankRdBursts::3            24276                       # Per bank write bursts
system.mem_ctrls2.perBankRdBursts::4            23874                       # Per bank write bursts
system.mem_ctrls2.perBankRdBursts::5            24158                       # Per bank write bursts
system.mem_ctrls2.perBankRdBursts::6            24234                       # Per bank write bursts
system.mem_ctrls2.perBankRdBursts::7            24031                       # Per bank write bursts
system.mem_ctrls2.perBankRdBursts::8            23901                       # Per bank write bursts
system.mem_ctrls2.perBankRdBursts::9            24049                       # Per bank write bursts
system.mem_ctrls2.perBankRdBursts::10           23815                       # Per bank write bursts
system.mem_ctrls2.perBankRdBursts::11           24325                       # Per bank write bursts
system.mem_ctrls2.perBankRdBursts::12           23625                       # Per bank write bursts
system.mem_ctrls2.perBankRdBursts::13           23436                       # Per bank write bursts
system.mem_ctrls2.perBankRdBursts::14           23589                       # Per bank write bursts
system.mem_ctrls2.perBankRdBursts::15           23780                       # Per bank write bursts
system.mem_ctrls2.perBankWrBursts::0            20227                       # Per bank write bursts
system.mem_ctrls2.perBankWrBursts::1            20134                       # Per bank write bursts
system.mem_ctrls2.perBankWrBursts::2            20139                       # Per bank write bursts
system.mem_ctrls2.perBankWrBursts::3            20427                       # Per bank write bursts
system.mem_ctrls2.perBankWrBursts::4            20049                       # Per bank write bursts
system.mem_ctrls2.perBankWrBursts::5            20335                       # Per bank write bursts
system.mem_ctrls2.perBankWrBursts::6            20359                       # Per bank write bursts
system.mem_ctrls2.perBankWrBursts::7            20323                       # Per bank write bursts
system.mem_ctrls2.perBankWrBursts::8            20394                       # Per bank write bursts
system.mem_ctrls2.perBankWrBursts::9            20203                       # Per bank write bursts
system.mem_ctrls2.perBankWrBursts::10           20117                       # Per bank write bursts
system.mem_ctrls2.perBankWrBursts::11           20157                       # Per bank write bursts
system.mem_ctrls2.perBankWrBursts::12           19937                       # Per bank write bursts
system.mem_ctrls2.perBankWrBursts::13           20184                       # Per bank write bursts
system.mem_ctrls2.perBankWrBursts::14           20155                       # Per bank write bursts
system.mem_ctrls2.perBankWrBursts::15           20099                       # Per bank write bursts
system.mem_ctrls2.numRdRetry                    48426                       # Number of times read queue was full causing retry
system.mem_ctrls2.numWrRetry                    11108                       # Number of times write queue was full causing retry
system.mem_ctrls2.totGap                 154059520000                       # Total gap between requests
system.mem_ctrls2.readPktSize::0                    0                       # Read request sizes (log2)
system.mem_ctrls2.readPktSize::1                    0                       # Read request sizes (log2)
system.mem_ctrls2.readPktSize::2                    0                       # Read request sizes (log2)
system.mem_ctrls2.readPktSize::3                    0                       # Read request sizes (log2)
system.mem_ctrls2.readPktSize::4                    0                       # Read request sizes (log2)
system.mem_ctrls2.readPktSize::5                    0                       # Read request sizes (log2)
system.mem_ctrls2.readPktSize::6               382998                       # Read request sizes (log2)
system.mem_ctrls2.writePktSize::0                   0                       # Write request sizes (log2)
system.mem_ctrls2.writePktSize::1                   0                       # Write request sizes (log2)
system.mem_ctrls2.writePktSize::2                   0                       # Write request sizes (log2)
system.mem_ctrls2.writePktSize::3                   0                       # Write request sizes (log2)
system.mem_ctrls2.writePktSize::4                   0                       # Write request sizes (log2)
system.mem_ctrls2.writePktSize::5                   0                       # Write request sizes (log2)
system.mem_ctrls2.writePktSize::6              323240                       # Write request sizes (log2)
system.mem_ctrls2.rdQLenPdf::0                 203097                       # What read queue length does an incoming req see
system.mem_ctrls2.rdQLenPdf::1                   4767                       # What read queue length does an incoming req see
system.mem_ctrls2.rdQLenPdf::2                   4790                       # What read queue length does an incoming req see
system.mem_ctrls2.rdQLenPdf::3                   5356                       # What read queue length does an incoming req see
system.mem_ctrls2.rdQLenPdf::4                   5799                       # What read queue length does an incoming req see
system.mem_ctrls2.rdQLenPdf::5                   5833                       # What read queue length does an incoming req see
system.mem_ctrls2.rdQLenPdf::6                   5722                       # What read queue length does an incoming req see
system.mem_ctrls2.rdQLenPdf::7                   5510                       # What read queue length does an incoming req see
system.mem_ctrls2.rdQLenPdf::8                   5222                       # What read queue length does an incoming req see
system.mem_ctrls2.rdQLenPdf::9                   5036                       # What read queue length does an incoming req see
system.mem_ctrls2.rdQLenPdf::10                  4785                       # What read queue length does an incoming req see
system.mem_ctrls2.rdQLenPdf::11                  4535                       # What read queue length does an incoming req see
system.mem_ctrls2.rdQLenPdf::12                  4306                       # What read queue length does an incoming req see
system.mem_ctrls2.rdQLenPdf::13                  4236                       # What read queue length does an incoming req see
system.mem_ctrls2.rdQLenPdf::14                  4128                       # What read queue length does an incoming req see
system.mem_ctrls2.rdQLenPdf::15                  4038                       # What read queue length does an incoming req see
system.mem_ctrls2.rdQLenPdf::16                  3946                       # What read queue length does an incoming req see
system.mem_ctrls2.rdQLenPdf::17                  3880                       # What read queue length does an incoming req see
system.mem_ctrls2.rdQLenPdf::18                  3737                       # What read queue length does an incoming req see
system.mem_ctrls2.rdQLenPdf::19                  3649                       # What read queue length does an incoming req see
system.mem_ctrls2.rdQLenPdf::20                  3600                       # What read queue length does an incoming req see
system.mem_ctrls2.rdQLenPdf::21                  3537                       # What read queue length does an incoming req see
system.mem_ctrls2.rdQLenPdf::22                  3370                       # What read queue length does an incoming req see
system.mem_ctrls2.rdQLenPdf::23                  3319                       # What read queue length does an incoming req see
system.mem_ctrls2.rdQLenPdf::24                  3244                       # What read queue length does an incoming req see
system.mem_ctrls2.rdQLenPdf::25                  3231                       # What read queue length does an incoming req see
system.mem_ctrls2.rdQLenPdf::26                  3310                       # What read queue length does an incoming req see
system.mem_ctrls2.rdQLenPdf::27                  3427                       # What read queue length does an incoming req see
system.mem_ctrls2.rdQLenPdf::28                  3372                       # What read queue length does an incoming req see
system.mem_ctrls2.rdQLenPdf::29                  3483                       # What read queue length does an incoming req see
system.mem_ctrls2.rdQLenPdf::30                  3734                       # What read queue length does an incoming req see
system.mem_ctrls2.rdQLenPdf::31                 52980                       # What read queue length does an incoming req see
system.mem_ctrls2.wrQLenPdf::0                  48074                       # What write queue length does an incoming req see
system.mem_ctrls2.wrQLenPdf::1                  52895                       # What write queue length does an incoming req see
system.mem_ctrls2.wrQLenPdf::2                  54854                       # What write queue length does an incoming req see
system.mem_ctrls2.wrQLenPdf::3                  55546                       # What write queue length does an incoming req see
system.mem_ctrls2.wrQLenPdf::4                  55679                       # What write queue length does an incoming req see
system.mem_ctrls2.wrQLenPdf::5                  15312                       # What write queue length does an incoming req see
system.mem_ctrls2.wrQLenPdf::6                  16782                       # What write queue length does an incoming req see
system.mem_ctrls2.wrQLenPdf::7                  24098                       # What write queue length does an incoming req see
system.mem_ctrls2.bytesPerActivate::samples       186973                       # Bytes accessed per row activation
system.mem_ctrls2.bytesPerActivate::mean   241.733127                       # Bytes accessed per row activation
system.mem_ctrls2.bytesPerActivate::gmean   190.335009                       # Bytes accessed per row activation
system.mem_ctrls2.bytesPerActivate::stdev   172.526378                       # Bytes accessed per row activation
system.mem_ctrls2.bytesPerActivate::0-127        39933     21.36%     21.36% # Bytes accessed per row activation
system.mem_ctrls2.bytesPerActivate::128-255        53751     28.75%     50.11% # Bytes accessed per row activation
system.mem_ctrls2.bytesPerActivate::256-383        69966     37.42%     87.53% # Bytes accessed per row activation
system.mem_ctrls2.bytesPerActivate::384-511         9515      5.09%     92.61% # Bytes accessed per row activation
system.mem_ctrls2.bytesPerActivate::512-639         6289      3.36%     95.98% # Bytes accessed per row activation
system.mem_ctrls2.bytesPerActivate::640-767         2739      1.46%     97.44% # Bytes accessed per row activation
system.mem_ctrls2.bytesPerActivate::768-895         1569      0.84%     98.28% # Bytes accessed per row activation
system.mem_ctrls2.bytesPerActivate::896-1023         1033      0.55%     98.84% # Bytes accessed per row activation
system.mem_ctrls2.bytesPerActivate::1024-1151         2178      1.16%    100.00% # Bytes accessed per row activation
system.mem_ctrls2.bytesPerActivate::total       186973                       # Bytes accessed per row activation
system.mem_ctrls2.rdPerTurnAround::samples        49871                       # Reads before turning the bus around for writes
system.mem_ctrls2.rdPerTurnAround::mean      7.679353                       # Reads before turning the bus around for writes
system.mem_ctrls2.rdPerTurnAround::stdev    15.403415                       # Reads before turning the bus around for writes
system.mem_ctrls2.rdPerTurnAround::0-127        49865     99.99%     99.99% # Reads before turning the bus around for writes
system.mem_ctrls2.rdPerTurnAround::128-255            4      0.01%    100.00% # Reads before turning the bus around for writes
system.mem_ctrls2.rdPerTurnAround::1152-1279            1      0.00%    100.00% # Reads before turning the bus around for writes
system.mem_ctrls2.rdPerTurnAround::2816-2943            1      0.00%    100.00% # Reads before turning the bus around for writes
system.mem_ctrls2.rdPerTurnAround::total        49871                       # Reads before turning the bus around for writes
system.mem_ctrls2.wrPerTurnAround::samples        49871                       # Writes before turning the bus around for reads
system.mem_ctrls2.wrPerTurnAround::mean      6.481502                       # Writes before turning the bus around for reads
system.mem_ctrls2.wrPerTurnAround::gmean     5.970356                       # Writes before turning the bus around for reads
system.mem_ctrls2.wrPerTurnAround::stdev     3.213250                       # Writes before turning the bus around for reads
system.mem_ctrls2.wrPerTurnAround::4-7          40443     81.10%     81.10% # Writes before turning the bus around for reads
system.mem_ctrls2.wrPerTurnAround::8-11          3672      7.36%     88.46% # Writes before turning the bus around for reads
system.mem_ctrls2.wrPerTurnAround::12-15         3196      6.41%     94.87% # Writes before turning the bus around for reads
system.mem_ctrls2.wrPerTurnAround::16-19         2560      5.13%    100.00% # Writes before turning the bus around for reads
system.mem_ctrls2.wrPerTurnAround::total        49871                       # Writes before turning the bus around for reads
system.mem_ctrls2.totQLat                 45270328987                       # Total ticks spent queuing
system.mem_ctrls2.totMemAccLat            52451185237                       # Total ticks spent from burst creation until serviced by the DRAM
system.mem_ctrls2.totBusLat                1914895000                       # Total ticks spent in databus transfers
system.mem_ctrls2.avgQLat                   118205.77                       # Average queueing delay per DRAM burst
system.mem_ctrls2.avgBusLat                   5000.00                       # Average bus latency per DRAM burst
system.mem_ctrls2.avgMemAccLat              136955.77                       # Average memory access latency per DRAM burst
system.mem_ctrls2.avgRdBW                      159.10                       # Average DRAM read bandwidth in MiByte/s
system.mem_ctrls2.avgWrBW                      134.28                       # Average achieved write bandwidth in MiByte/s
system.mem_ctrls2.avgRdBWSys                   159.11                       # Average system read bandwidth in MiByte/s
system.mem_ctrls2.avgWrBWSys                   134.28                       # Average system write bandwidth in MiByte/s
system.mem_ctrls2.peakBW                     12800.00                       # Theoretical peak bandwidth in MiByte/s
system.mem_ctrls2.busUtil                        2.29                       # Data bus utilization in percentage
system.mem_ctrls2.busUtilRead                    1.24                       # Data bus utilization in percentage for reads
system.mem_ctrls2.busUtilWrite                   1.05                       # Data bus utilization in percentage for writes
system.mem_ctrls2.avgRdQLen                      1.30                       # Average read queue length when enqueuing
system.mem_ctrls2.avgWrQLen                      3.00                       # Average write queue length when enqueuing
system.mem_ctrls2.readRowHits                  289709                       # Number of row buffer hits during reads
system.mem_ctrls2.writeRowHits                 229530                       # Number of row buffer hits during writes
system.mem_ctrls2.readRowHitRate                75.65                       # Row buffer hit rate for reads
system.mem_ctrls2.writeRowHitRate               71.01                       # Row buffer hit rate for writes
system.mem_ctrls2.avgGap                    218141.08                       # Average gap between requests
system.mem_ctrls2.pageHitRate                   73.52                       # Row buffer hit rate, read and write combined
system.mem_ctrls2.memoryStateTime::IDLE   27138611750                       # Time in different power states
system.mem_ctrls2.memoryStateTime::REF     5144360000                       # Time in different power states
system.mem_ctrls2.memoryStateTime::PRE_PDN            0                       # Time in different power states
system.mem_ctrls2.memoryStateTime::ACT   121776044500                       # Time in different power states
system.mem_ctrls2.memoryStateTime::ACT_PDN            0                       # Time in different power states
system.mem_ctrls2.actEnergy::0              712968480                       # Energy for activate commands per rank (pJ)
system.mem_ctrls2.actEnergy::1              700532280                       # Energy for activate commands per rank (pJ)
system.mem_ctrls2.preEnergy::0              389020500                       # Energy for precharge commands per rank (pJ)
system.mem_ctrls2.preEnergy::1              382234875                       # Energy for precharge commands per rank (pJ)
system.mem_ctrls2.readEnergy::0            1501164600                       # Energy for read commands per rank (pJ)
system.mem_ctrls2.readEnergy::1            1486048200                       # Energy for read commands per rank (pJ)
system.mem_ctrls2.writeEnergy::0           1049695200                       # Energy for write commands per rank (pJ)
system.mem_ctrls2.writeEnergy::1           1044861120                       # Energy for write commands per rank (pJ)
system.mem_ctrls2.refreshEnergy::0        10062368160                       # Energy for refresh commands per rank (pJ)
system.mem_ctrls2.refreshEnergy::1        10062368160                       # Energy for refresh commands per rank (pJ)
system.mem_ctrls2.actBackEnergy::0        59827454505                       # Energy for active background per rank (pJ)
system.mem_ctrls2.actBackEnergy::1        59365275705                       # Energy for active background per rank (pJ)
system.mem_ctrls2.preBackEnergy::0        39955178250                       # Energy for precharge background per rank (pJ)
system.mem_ctrls2.preBackEnergy::1        40360598250                       # Energy for precharge background per rank (pJ)
system.mem_ctrls2.totalEnergy::0         113497849695                       # Total energy per rank (pJ)
system.mem_ctrls2.totalEnergy::1         113401918590                       # Total energy per rank (pJ)
system.mem_ctrls2.averagePower::0          736.716763                       # Core power per rank (mW)
system.mem_ctrls2.averagePower::1          736.094073                       # Core power per rank (mW)
system.mem_ctrls3.bytes_read::ruby.dir_cntrl3     24492032                       # Number of bytes read from this memory
system.mem_ctrls3.bytes_read::total          24492032                       # Number of bytes read from this memory
system.mem_ctrls3.bytes_written::ruby.dir_cntrl3     20685824                       # Number of bytes written to this memory
system.mem_ctrls3.bytes_written::total       20685824                       # Number of bytes written to this memory
system.mem_ctrls3.num_reads::ruby.dir_cntrl3       382688                       # Number of read requests responded to by this memory
system.mem_ctrls3.num_reads::total             382688                       # Number of read requests responded to by this memory
system.mem_ctrls3.num_writes::ruby.dir_cntrl3       323216                       # Number of write requests responded to by this memory
system.mem_ctrls3.num_writes::total            323216                       # Number of write requests responded to by this memory
system.mem_ctrls3.bw_read::ruby.dir_cntrl3    158976857                       # Total read bandwidth from this memory (bytes/s)
system.mem_ctrls3.bw_read::total            158976857                       # Total read bandwidth from this memory (bytes/s)
system.mem_ctrls3.bw_write::ruby.dir_cntrl3    134270904                       # Write bandwidth from this memory (bytes/s)
system.mem_ctrls3.bw_write::total           134270904                       # Write bandwidth from this memory (bytes/s)
system.mem_ctrls3.bw_total::ruby.dir_cntrl3    293247762                       # Total bandwidth to/from this memory (bytes/s)
system.mem_ctrls3.bw_total::total           293247762                       # Total bandwidth to/from this memory (bytes/s)
system.mem_ctrls3.readReqs                     382688                       # Number of read requests accepted
system.mem_ctrls3.writeReqs                    323216                       # Number of write requests accepted
system.mem_ctrls3.readBursts                   382688                       # Number of DRAM read bursts, including those serviced by the write queue
system.mem_ctrls3.writeBursts                  323216                       # Number of DRAM write bursts, including those merged in the write queue
system.mem_ctrls3.bytesReadDRAM              24491392                       # Total number of bytes read from DRAM
system.mem_ctrls3.bytesReadWrQ                    640                       # Total number of bytes read from write queue
system.mem_ctrls3.bytesWritten               20685696                       # Total number of bytes written to DRAM
system.mem_ctrls3.bytesReadSys               24492032                       # Total read bytes from the system interface side
system.mem_ctrls3.bytesWrittenSys            20685824                       # Total written bytes from the system interface side
system.mem_ctrls3.servicedByWrQ                    10                       # Number of DRAM read bursts serviced by the write queue
system.mem_ctrls3.mergedWrBursts                    0                       # Number of DRAM write bursts merged with an existing one
system.mem_ctrls3.neitherReadNorWriteReqs            0                       # Number of requests that are neither read nor write
system.mem_ctrls3.perBankRdBursts::0            23630                       # Per bank write bursts
system.mem_ctrls3.perBankRdBursts::1            24304                       # Per bank write bursts
system.mem_ctrls3.perBankRdBursts::2            23817                       # Per bank write bursts
system.mem_ctrls3.perBankRdBursts::3            24239                       # Per bank write bursts
system.mem_ctrls3.perBankRdBursts::4            23817                       # Per bank write bursts
system.mem_ctrls3.perBankRdBursts::5            24167                       # Per bank write bursts
system.mem_ctrls3.perBankRdBursts::6            24229                       # Per bank write bursts
system.mem_ctrls3.perBankRdBursts::7            24036                       # Per bank write bursts
system.mem_ctrls3.perBankRdBursts::8            23889                       # Per bank write bursts
system.mem_ctrls3.perBankRdBursts::9            24027                       # Per bank write bursts
system.mem_ctrls3.perBankRdBursts::10           23883                       # Per bank write bursts
system.mem_ctrls3.perBankRdBursts::11           24276                       # Per bank write bursts
system.mem_ctrls3.perBankRdBursts::12           23558                       # Per bank write bursts
system.mem_ctrls3.perBankRdBursts::13           23447                       # Per bank write bursts
system.mem_ctrls3.perBankRdBursts::14           23607                       # Per bank write bursts
system.mem_ctrls3.perBankRdBursts::15           23752                       # Per bank write bursts
system.mem_ctrls3.perBankWrBursts::0            20231                       # Per bank write bursts
system.mem_ctrls3.perBankWrBursts::1            20130                       # Per bank write bursts
system.mem_ctrls3.perBankWrBursts::2            20141                       # Per bank write bursts
system.mem_ctrls3.perBankWrBursts::3            20415                       # Per bank write bursts
system.mem_ctrls3.perBankWrBursts::4            20043                       # Per bank write bursts
system.mem_ctrls3.perBankWrBursts::5            20336                       # Per bank write bursts
system.mem_ctrls3.perBankWrBursts::6            20358                       # Per bank write bursts
system.mem_ctrls3.perBankWrBursts::7            20312                       # Per bank write bursts
system.mem_ctrls3.perBankWrBursts::8            20392                       # Per bank write bursts
system.mem_ctrls3.perBankWrBursts::9            20202                       # Per bank write bursts
system.mem_ctrls3.perBankWrBursts::10           20121                       # Per bank write bursts
system.mem_ctrls3.perBankWrBursts::11           20169                       # Per bank write bursts
system.mem_ctrls3.perBankWrBursts::12           19935                       # Per bank write bursts
system.mem_ctrls3.perBankWrBursts::13           20192                       # Per bank write bursts
system.mem_ctrls3.perBankWrBursts::14           20160                       # Per bank write bursts
system.mem_ctrls3.perBankWrBursts::15           20077                       # Per bank write bursts
system.mem_ctrls3.numRdRetry                    49800                       # Number of times read queue was full causing retry
system.mem_ctrls3.numWrRetry                    10795                       # Number of times write queue was full causing retry
system.mem_ctrls3.totGap                 154059237500                       # Total gap between requests
system.mem_ctrls3.readPktSize::0                    0                       # Read request sizes (log2)
system.mem_ctrls3.readPktSize::1                    0                       # Read request sizes (log2)
system.mem_ctrls3.readPktSize::2                    0                       # Read request sizes (log2)
system.mem_ctrls3.readPktSize::3                    0                       # Read request sizes (log2)
system.mem_ctrls3.readPktSize::4                    0                       # Read request sizes (log2)
system.mem_ctrls3.readPktSize::5                    0                       # Read request sizes (log2)
system.mem_ctrls3.readPktSize::6               382688                       # Read request sizes (log2)
system.mem_ctrls3.writePktSize::0                   0                       # Write request sizes (log2)
system.mem_ctrls3.writePktSize::1                   0                       # Write request sizes (log2)
system.mem_ctrls3.writePktSize::2                   0                       # Write request sizes (log2)
system.mem_ctrls3.writePktSize::3                   0                       # Write request sizes (log2)
system.mem_ctrls3.writePktSize::4                   0                       # Write request sizes (log2)
system.mem_ctrls3.writePktSize::5                   0                       # Write request sizes (log2)
system.mem_ctrls3.writePktSize::6              323216                       # Write request sizes (log2)
system.mem_ctrls3.rdQLenPdf::0                 202672                       # What read queue length does an incoming req see
system.mem_ctrls3.rdQLenPdf::1                   4809                       # What read queue length does an incoming req see
system.mem_ctrls3.rdQLenPdf::2                   4848                       # What read queue length does an incoming req see
system.mem_ctrls3.rdQLenPdf::3                   5296                       # What read queue length does an incoming req see
system.mem_ctrls3.rdQLenPdf::4                   5838                       # What read queue length does an incoming req see
system.mem_ctrls3.rdQLenPdf::5                   5960                       # What read queue length does an incoming req see
system.mem_ctrls3.rdQLenPdf::6                   5781                       # What read queue length does an incoming req see
system.mem_ctrls3.rdQLenPdf::7                   5396                       # What read queue length does an incoming req see
system.mem_ctrls3.rdQLenPdf::8                   5118                       # What read queue length does an incoming req see
system.mem_ctrls3.rdQLenPdf::9                   4935                       # What read queue length does an incoming req see
system.mem_ctrls3.rdQLenPdf::10                  4742                       # What read queue length does an incoming req see
system.mem_ctrls3.rdQLenPdf::11                  4669                       # What read queue length does an incoming req see
system.mem_ctrls3.rdQLenPdf::12                  4264                       # What read queue length does an incoming req see
system.mem_ctrls3.rdQLenPdf::13                  4197                       # What read queue length does an incoming req see
system.mem_ctrls3.rdQLenPdf::14                  4122                       # What read queue length does an incoming req see
system.mem_ctrls3.rdQLenPdf::15                  4012                       # What read queue length does an incoming req see
system.mem_ctrls3.rdQLenPdf::16                  3861                       # What read queue length does an incoming req see
system.mem_ctrls3.rdQLenPdf::17                  3705                       # What read queue length does an incoming req see
system.mem_ctrls3.rdQLenPdf::18                  3526                       # What read queue length does an incoming req see
system.mem_ctrls3.rdQLenPdf::19                  3490                       # What read queue length does an incoming req see
system.mem_ctrls3.rdQLenPdf::20                  3457                       # What read queue length does an incoming req see
system.mem_ctrls3.rdQLenPdf::21                  3321                       # What read queue length does an incoming req see
system.mem_ctrls3.rdQLenPdf::22                  3299                       # What read queue length does an incoming req see
system.mem_ctrls3.rdQLenPdf::23                  3208                       # What read queue length does an incoming req see
system.mem_ctrls3.rdQLenPdf::24                  3205                       # What read queue length does an incoming req see
[...]
system.ruby.L2Cache_Controller.I_I.Ack_all::total        16627                      
system.ruby.L2Cache_Controller.S_I.Ack   |           0      0.00%      0.00% |           0      0.00%      0.00% |           0      0.00%      0.00% |           0      0.00%      0.00% |           0      0.00%      0.00% |           1     50.00%     50.00% |           0      0.00%     50.00% |           0      0.00%     50.00% |           0      0.00%     50.00% |           0      0.00%     50.00% |           0      0.00%     50.00% |           0      0.00%     50.00% |           0      0.00%     50.00% |           0      0.00%     50.00% |           0      0.00%     50.00% |           0      0.00%     50.00% |           0      0.00%     50.00% |           0      0.00%     50.00% |           0      0.00%     50.00% |           0      0.00%     50.00% |           0      0.00%     50.00% |           0      0.00%     50.00% |           0      0.00%     50.00% |           0      0.00%     50.00% |           0      0.00%     50.00% |           0      0.00%     50.00% |           0      0.00%     50.00% |           0      0.00%     50.00% |           1     50.00%    100.00% |           0      0.00%    100.00% |           0      0.00%    100.00% |           0      0.00%    100.00%
system.ruby.L2Cache_Controller.S_I.Ack::total            2                      
system.ruby.L2Cache_Controller.S_I.Ack_all |           0      0.00%      0.00% |           4     28.57%     28.57% |           1      7.14%     35.71% |           1      7.14%     42.86% |           0      0.00%     42.86% |           2     14.29%     57.14% |           0      0.00%     57.14% |           0      0.00%     57.14% |           0      0.00%     57.14% |           1      7.14%     64.29% |           1      7.14%     71.43% |           0      0.00%     71.43% |           0      0.00%     71.43% |           0      0.00%     71.43% |           1      7.14%     78.57% |           0      0.00%     78.57% |           0      0.00%     78.57% |           0      0.00%     78.57% |           1      7.14%     85.71% |           0      0.00%     85.71% |           0      0.00%     85.71% |           0      0.00%     85.71% |           0      0.00%     85.71% |           0      0.00%     85.71% |           1      7.14%     92.86% |           0      0.00%     92.86% |           0      0.00%     92.86% |           0      0.00%     92.86% |           1      7.14%    100.00% |           0      0.00%    100.00% |           0      0.00%    100.00% |           0      0.00%    100.00%
system.ruby.L2Cache_Controller.S_I.Ack_all::total           14                      
system.ruby.L2Cache_Controller.ISS.Mem_Data |       18692      7.93%      7.93% |        7079      3.00%     10.93% |        7087      3.01%     13.94% |        7034      2.98%     16.92% |        7002      2.97%     19.89% |        6985      2.96%     22.85% |        6997      2.97%     25.82% |        6995      2.97%     28.79% |        7032      2.98%     31.77% |        7033      2.98%     34.75% |        7065      3.00%     37.75% |        6989      2.96%     40.71% |        6994      2.97%     43.68% |        6994      2.97%     46.65% |        6996      2.97%     49.62% |        6959      2.95%     52.57% |        6997      2.97%     55.53% |        6975      2.96%     58.49% |        7006      2.97%     61.46% |        6985      2.96%     64.43% |        6983      2.96%     67.39% |        6968      2.96%     70.34% |        6994      2.97%     73.31% |        6987      2.96%     76.27% |        7004      2.97%     79.25% |        7007      2.97%     82.22% |        6988      2.96%     85.18% |        6962      2.95%     88.13% |        7005      2.97%     91.11% |        6985      2.96%     94.07% |        6959      2.95%     97.02% |        7025      2.98%    100.00%
system.ruby.L2Cache_Controller.ISS.Mem_Data::total       235763                      
system.ruby.L2Cache_Controller.IS.Mem_Data |         542      3.24%      3.24% |         470      2.81%      6.06% |         466      2.79%      8.85% |         466      2.79%     11.64% |         512      3.07%     14.70% |         468      2.80%     17.50% |         505      3.02%     20.53% |         531      3.18%     23.71% |         549      3.29%     26.99% |         491      2.94%     29.93% |         537      3.21%     33.15% |         569      3.41%     36.55% |         623      3.73%     40.28% |         566      3.39%     43.67% |         582      3.48%     47.16% |         525      3.14%     50.30% |         536      3.21%     53.51% |         574      3.44%     56.94% |         567      3.39%     60.34% |         513      3.07%     63.41% |         508      3.04%     66.45% |         524      3.14%     69.59% |         483      2.89%     72.48% |         471      2.82%     75.30% |         548      3.28%     78.58% |         595      3.56%     82.14% |         534      3.20%     85.34% |         482      2.89%     88.22% |         493      2.95%     91.18% |         512      3.07%     94.24% |         493      2.95%     97.19% |         469      2.81%    100.00%
system.ruby.L2Cache_Controller.IS.Mem_Data::total        16704                      
system.ruby.L2Cache_Controller.IM.Mem_Data |       40412      3.13%      3.13% |       40330      3.12%      6.25% |       40342      3.12%      9.38% |       40347      3.13%     12.50% |       40354      3.13%     15.63% |       40364      3.13%     18.76% |       40339      3.12%     21.88% |       40336      3.12%     25.00% |       40350      3.13%     28.13% |       40344      3.12%     31.25% |       40329      3.12%     34.38% |       40358      3.13%     37.50% |       40339      3.12%     40.63% |       40338      3.12%     43.75% |       40341      3.12%     46.88% |       40330      3.12%     50.00% |       40352      3.13%     53.13% |       40352      3.13%     56.25% |       40349      3.13%     59.38% |       40345      3.12%     62.50% |       40340      3.12%     65.63% |       40354      3.13%     68.75% |       40339      3.12%     71.88% |       40341      3.12%     75.00% |       40347      3.13%     78.13% |       40345      3.12%     81.25% |       40349      3.13%     84.38% |       40337      3.12%     87.50% |       40336      3.12%     90.63% |       40338      3.12%     93.75% |       40351      3.13%     96.88% |       40332      3.12%    100.00%
system.ruby.L2Cache_Controller.IM.Mem_Data::total      1291060                      
system.ruby.L2Cache_Controller.SS_MB.Exclusive_Unblock |           4      8.89%      8.89% |           6     13.33%     22.22% |           2      4.44%     26.67% |           6     13.33%     40.00% |           1      2.22%     42.22% |           0      0.00%     42.22% |           1      2.22%     44.44% |           0      0.00%     44.44% |           0      0.00%     44.44% |           1      2.22%     46.67% |           1      2.22%     48.89% |           0      0.00%     48.89% |           4      8.89%     57.78% |           0      0.00%     57.78% |           3      6.67%     64.44% |           0      0.00%     64.44% |           0      0.00%     64.44% |           0      0.00%     64.44% |           9     20.00%     84.44% |           0      0.00%     84.44% |           0      0.00%     84.44% |           0      0.00%     84.44% |           0      0.00%     84.44% |           0      0.00%     84.44% |           1      2.22%     86.67% |           2      4.44%     91.11% |           1      2.22%     93.33% |           1      2.22%     95.56% |           0      0.00%     95.56% |           1      2.22%     97.78% |           1      2.22%    100.00% |           0      0.00%    100.00%
system.ruby.L2Cache_Controller.SS_MB.Exclusive_Unblock::total           45                      
system.ruby.L2Cache_Controller.MT_MB.L1_PUTX |           2    100.00%    100.00% |           0      0.00%    100.00% |           0      0.00%    100.00% |           0      0.00%    100.00% |           0      0.00%    100.00% |           0      0.00%    100.00% |           0      0.00%    100.00% |           0      0.00%    100.00% |           0      0.00%    100.00% |           0      0.00%    100.00% |           0      0.00%    100.00% |           0      0.00%    100.00% |           0      0.00%    100.00% |           0      0.00%    100.00% |           0      0.00%    100.00% |           0      0.00%    100.00% |           0      0.00%    100.00% |           0      0.00%    100.00% |           0      0.00%    100.00% |           0      0.00%    100.00% |           0      0.00%    100.00% |           0      0.00%    100.00% |           0      0.00%    100.00% |           0      0.00%    100.00% |           0      0.00%    100.00% |           0      0.00%    100.00% |           0      0.00%    100.00% |           0      0.00%    100.00% |           0      0.00%    100.00% |           0      0.00%    100.00% |           0      0.00%    100.00% |           0      0.00%    100.00%
system.ruby.L2Cache_Controller.MT_MB.L1_PUTX::total            2                      
system.ruby.L2Cache_Controller.MT_MB.Exclusive_Unblock |      173203      8.48%      8.48% |       64264      3.15%     11.63% |       58766      2.88%     14.51% |       58466      2.86%     17.37% |       57804      2.83%     20.21% |       56504      2.77%     22.97% |       55007      2.69%     25.67% |       55305      2.71%     28.38% |       59154      2.90%     31.27% |       57720      2.83%     34.10% |       60648      2.97%     37.07% |       60210      2.95%     40.02% |       56860      2.79%     42.81% |       56795      2.78%     45.59% |       56449      2.77%     48.35% |       56867      2.79%     51.14% |       59152      2.90%     54.04% |       58517      2.87%     56.90% |       59887      2.93%     59.84% |       60879      2.98%     62.82% |       60910      2.98%     65.80% |       63097      3.09%     68.89% |       64328      3.15%     72.04% |       60552      2.97%     75.01% |       61165      3.00%     78.01% |       62476      3.06%     81.07% |       60804      2.98%     84.05% |       61423      3.01%     87.05% |       64095      3.14%     90.19% |       61916      3.03%     93.23% |       70029      3.43%     96.66% |       68240      3.34%    100.00%
system.ruby.L2Cache_Controller.MT_MB.Exclusive_Unblock::total      2041492                      
system.ruby.L2Cache_Controller.MT_IIB.WB_Data |           0      0.00%      0.00% |           0      0.00%      0.00% |           0      0.00%      0.00% |           0      0.00%      0.00% |           0      0.00%      0.00% |           1     50.00%     50.00% |           0      0.00%     50.00% |           0      0.00%     50.00% |           0      0.00%     50.00% |           0      0.00%     50.00% |           0      0.00%     50.00% |           0      0.00%     50.00% |           0      0.00%     50.00% |           0      0.00%     50.00% |           0      0.00%     50.00% |           0      0.00%     50.00% |           0      0.00%     50.00% |           0      0.00%     50.00% |           0      0.00%     50.00% |           0      0.00%     50.00% |           0      0.00%     50.00% |           0      0.00%     50.00% |           0      0.00%     50.00% |           0      0.00%     50.00% |           0      0.00%     50.00% |           0      0.00%     50.00% |           0      0.00%     50.00% |           0      0.00%     50.00% |           1     50.00%    100.00% |           0      0.00%    100.00% |           0      0.00%    100.00% |           0      0.00%    100.00%
system.ruby.L2Cache_Controller.MT_IIB.WB_Data::total            2                      
system.ruby.L2Cache_Controller.MT_IIB.WB_Data_clean |          18    100.00%    100.00% |           0      0.00%    100.00% |           0      0.00%    100.00% |           0      0.00%    100.00% |           0      0.00%    100.00% |           0      0.00%    100.00% |           0      0.00%    100.00% |           0      0.00%    100.00% |           0      0.00%    100.00% |           0      0.00%    100.00% |           0      0.00%    100.00% |           0      0.00%    100.00% |           0      0.00%    100.00% |           0      0.00%    100.00% |           0      0.00%    100.00% |           0      0.00%    100.00% |           0      0.00%    100.00% |           0      0.00%    100.00% |           0      0.00%    100.00% |           0      0.00%    100.00% |           0      0.00%    100.00% |           0      0.00%    100.00% |           0      0.00%    100.00% |           0      0.00%    100.00% |           0      0.00%    100.00% |           0      0.00%    100.00% |           0      0.00%    100.00% |           0      0.00%    100.00% |           0      0.00%    100.00% |           0      0.00%    100.00% |           0      0.00%    100.00% |           0      0.00%    100.00%
system.ruby.L2Cache_Controller.MT_IIB.WB_Data_clean::total           18                      
system.ruby.L2Cache_Controller.MT_SB.Unblock |          18     90.00%     90.00% |           0      0.00%     90.00% |           0      0.00%     90.00% |           0      0.00%     90.00% |           0      0.00%     90.00% |           1      5.00%     95.00% |           0      0.00%     95.00% |           0      0.00%     95.00% |           0      0.00%     95.00% |           0      0.00%     95.00% |           0      0.00%     95.00% |           0      0.00%     95.00% |           0      0.00%     95.00% |           0      0.00%     95.00% |           0      0.00%     95.00% |           0      0.00%     95.00% |           0      0.00%     95.00% |           0      0.00%     95.00% |           0      0.00%     95.00% |           0      0.00%     95.00% |           0      0.00%     95.00% |           0      0.00%     95.00% |           0      0.00%     95.00% |           0      0.00%     95.00% |           0      0.00%     95.00% |           0      0.00%     95.00% |           0      0.00%     95.00% |           0      0.00%     95.00% |           1      5.00%    100.00% |           0      0.00%    100.00% |           0      0.00%    100.00% |           0      0.00%    100.00%
system.ruby.L2Cache_Controller.MT_SB.Unblock::total           20                      
system.ruby.SimicsNetworkPortInterface_Controller.MessageSend |      280711     23.64%     23.64% |      593616     50.00%     73.64% |       39053      3.29%     76.93% |       39664      3.34%     80.27% |       39159      3.30%     83.57% |       39131      3.30%     86.87% |       38841      3.27%     90.14% |       39207      3.30%     93.44% |       38803      3.27%     96.71% |       39047      3.29%    100.00% |           0      0.00%    100.00% |           0      0.00%    100.00% |           0      0.00%    100.00% |           0      0.00%    100.00% |           0      0.00%    100.00% |           0      0.00%    100.00% |           0      0.00%    100.00% |           0      0.00%    100.00% |           0      0.00%    100.00% |           0      0.00%    100.00% |           0      0.00%    100.00% |           0      0.00%    100.00% |           0      0.00%    100.00% |           0      0.00%    100.00% |           0      0.00%    100.00% |           0      0.00%    100.00% |           0      0.00%    100.00% |           0      0.00%    100.00% |           0      0.00%    100.00% |           0      0.00%    100.00% |           0      0.00%    100.00% |           0      0.00%    100.00%
system.ruby.SimicsNetworkPortInterface_Controller.MessageSend::total      1187232                      
system.ruby.SimicsNetworkPortInterface_Controller.MessageRecv |      280711     23.64%     23.64% |      593616     50.00%     73.64% |       39053      3.29%     76.93% |       39664      3.34%     80.27% |       39159      3.30%     83.57% |       39131      3.30%     86.87% |       38841      3.27%     90.14% |       39207      3.30%     93.44% |       38803      3.27%     96.71% |       39047      3.29%    100.00% |           0      0.00%    100.00% |           0      0.00%    100.00% |           0      0.00%    100.00% |           0      0.00%    100.00% |           0      0.00%    100.00% |           0      0.00%    100.00% |           0      0.00%    100.00% |           0      0.00%    100.00% |           0      0.00%    100.00% |           0      0.00%    100.00% |           0      0.00%    100.00% |           0      0.00%    100.00% |           0      0.00%    100.00% |           0      0.00%    100.00% |           0      0.00%    100.00% |           0      0.00%    100.00% |           0      0.00%    100.00% |           0      0.00%    100.00% |           0      0.00%    100.00% |           0      0.00%    100.00% |           0      0.00%    100.00% |           0      0.00%    100.00%
system.ruby.SimicsNetworkPortInterface_Controller.MessageRecv::total      1187232                      
system.ruby.SimicsNetworkPortInterface_Controller.A.MessageSend |      280711     23.64%     23.64% |      593616     50.00%     73.64% |       39053      3.29%     76.93% |       39664      3.34%     80.27% |       39159      3.30%     83.57% |       39131      3.30%     86.87% |       38841      3.27%     90.14% |       39207      3.30%     93.44% |       38803      3.27%     96.71% |       39047      3.29%    100.00% |           0      0.00%    100.00% |           0      0.00%    100.00% |           0      0.00%    100.00% |           0      0.00%    100.00% |           0      0.00%    100.00% |           0      0.00%    100.00% |           0      0.00%    100.00% |           0      0.00%    100.00% |           0      0.00%    100.00% |           0      0.00%    100.00% |           0      0.00%    100.00% |           0      0.00%    100.00% |           0      0.00%    100.00% |           0      0.00%    100.00% |           0      0.00%    100.00% |           0      0.00%    100.00% |           0      0.00%    100.00% |           0      0.00%    100.00% |           0      0.00%    100.00% |           0      0.00%    100.00% |           0      0.00%    100.00% |           0      0.00%    100.00%
system.ruby.SimicsNetworkPortInterface_Controller.A.MessageSend::total      1187232                      
system.ruby.SimicsNetworkPortInterface_Controller.A.MessageRecv |      280711     23.64%     23.64% |      593616     50.00%     73.64% |       39053      3.29%     76.93% |       39664      3.34%     80.27% |       39159      3.30%     83.57% |       39131      3.30%     86.87% |       38841      3.27%     90.14% |       39207      3.30%     93.44% |       38803      3.27%     96.71% |       39047      3.29%    100.00% |           0      0.00%    100.00% |           0      0.00%    100.00% |           0      0.00%    100.00% |           0      0.00%    100.00% |           0      0.00%    100.00% |           0      0.00%    100.00% |           0      0.00%    100.00% |           0      0.00%    100.00% |           0      0.00%    100.00% |           0      0.00%    100.00% |           0      0.00%    100.00% |           0      0.00%    100.00% |           0      0.00%    100.00% |           0      0.00%    100.00% |           0      0.00%    100.00% |           0      0.00%    100.00% |           0      0.00%    100.00% |           0      0.00%    100.00% |           0      0.00%    100.00% |           0      0.00%    100.00% |           0      0.00%    100.00% |           0      0.00%    100.00%
system.ruby.SimicsNetworkPortInterface_Controller.A.MessageRecv::total      1187232                      
system.switch_cpus.kern.inst.arm                    0                       # number of arm instructions executed
system.switch_cpus.kern.inst.quiesce                0                       # number of quiesce instructions executed

---------- End Simulation Statistics   ----------
