
---------- Begin Simulation Statistics ----------
sim_seconds                                  0.059771                       # Number of seconds simulated
sim_ticks                                 59771400000                       # Number of ticks simulated
final_tick                               5235939478500                       # Number of ticks from beginning of simulation (restored from checkpoints and never reset)
sim_freq                                 1000000000000                       # Frequency of simulated ticks
host_inst_rate                                  21231                       # Simulator instruction rate (inst/s)
host_op_rate                                    37769                       # Simulator op (including micro ops) rate (op/s)
host_tick_rate                               31914628                       # Simulator tick rate (ticks/s)
host_mem_usage                                4817636                       # Number of bytes of host memory used
host_seconds                                  1872.85                       # Real time elapsed on the host
sim_insts                                    39762323                       # Number of instructions simulated
sim_ops                                      70735237                       # Number of ops (including micro ops) simulated
system.voltage_domain.voltage                       1                       # Voltage in Volts
system.clk_domain.clock                           500                       # Clock period in ticks
system.mem_ctrls0.bytes_read::ruby.dir_cntrl0     14034432                       # Number of bytes read from this memory
system.mem_ctrls0.bytes_read::total          14034432                       # Number of bytes read from this memory
system.mem_ctrls0.bytes_written::ruby.dir_cntrl0      4007680                       # Number of bytes written to this memory
system.mem_ctrls0.bytes_written::total        4007680                       # Number of bytes written to this memory
system.mem_ctrls0.num_reads::ruby.dir_cntrl0       219288                       # Number of read requests responded to by this memory
system.mem_ctrls0.num_reads::total             219288                       # Number of read requests responded to by this memory
system.mem_ctrls0.num_writes::ruby.dir_cntrl0        62620                       # Number of write requests responded to by this memory
system.mem_ctrls0.num_writes::total             62620                       # Number of write requests responded to by this memory
system.mem_ctrls0.bw_read::ruby.dir_cntrl0    234801795                       # Total read bandwidth from this memory (bytes/s)
system.mem_ctrls0.bw_read::total            234801795                       # Total read bandwidth from this memory (bytes/s)
system.mem_ctrls0.bw_write::ruby.dir_cntrl0     67050128                       # Write bandwidth from this memory (bytes/s)
system.mem_ctrls0.bw_write::total            67050128                       # Write bandwidth from this memory (bytes/s)
system.mem_ctrls0.bw_total::ruby.dir_cntrl0    301851922                       # Total bandwidth to/from this memory (bytes/s)
system.mem_ctrls0.bw_total::total           301851922                       # Total bandwidth to/from this memory (bytes/s)
system.mem_ctrls0.readReqs                     219288                       # Number of read requests accepted
system.mem_ctrls0.writeReqs                     62620                       # Number of write requests accepted
system.mem_ctrls0.readBursts                   219288                       # Number of DRAM read bursts, including those serviced by the write queue
system.mem_ctrls0.writeBursts                   62620                       # Number of DRAM write bursts, including those merged in the write queue
system.mem_ctrls0.bytesReadDRAM              14032832                       # Total number of bytes read from DRAM
system.mem_ctrls0.bytesReadWrQ                   1600                       # Total number of bytes read from write queue
system.mem_ctrls0.bytesWritten                4007680                       # Total number of bytes written to DRAM
system.mem_ctrls0.bytesReadSys               14034432                       # Total read bytes from the system interface side
system.mem_ctrls0.bytesWrittenSys             4007680                       # Total written bytes from the system interface side
system.mem_ctrls0.servicedByWrQ                    25                       # Number of DRAM read bursts serviced by the write queue
system.mem_ctrls0.mergedWrBursts                    0                       # Number of DRAM write bursts merged with an existing one
system.mem_ctrls0.neitherReadNorWriteReqs            0                       # Number of requests that are neither read nor write
system.mem_ctrls0.perBankRdBursts::0            13462                       # Per bank write bursts
system.mem_ctrls0.perBankRdBursts::1            13997                       # Per bank write bursts
system.mem_ctrls0.perBankRdBursts::2            13664                       # Per bank write bursts
system.mem_ctrls0.perBankRdBursts::3            14063                       # Per bank write bursts
system.mem_ctrls0.perBankRdBursts::4            13701                       # Per bank write bursts
system.mem_ctrls0.perBankRdBursts::5            14283                       # Per bank write bursts
system.mem_ctrls0.perBankRdBursts::6            13741                       # Per bank write bursts
system.mem_ctrls0.perBankRdBursts::7            13671                       # Per bank write bursts
system.mem_ctrls0.perBankRdBursts::8            13562                       # Per bank write bursts
system.mem_ctrls0.perBankRdBursts::9            13898                       # Per bank write bursts
system.mem_ctrls0.perBankRdBursts::10           13605                       # Per bank write bursts
system.mem_ctrls0.perBankRdBursts::11           13835                       # Per bank write bursts
system.mem_ctrls0.perBankRdBursts::12           13385                       # Per bank write bursts
system.mem_ctrls0.perBankRdBursts::13           13266                       # Per bank write bursts
system.mem_ctrls0.perBankRdBursts::14           13559                       # Per bank write bursts
system.mem_ctrls0.perBankRdBursts::15           13571                       # Per bank write bursts
system.mem_ctrls0.perBankWrBursts::0             3844                       # Per bank write bursts
system.mem_ctrls0.perBankWrBursts::1             3927                       # Per bank write bursts
system.mem_ctrls0.perBankWrBursts::2             3906                       # Per bank write bursts
system.mem_ctrls0.perBankWrBursts::3             4132                       # Per bank write bursts
system.mem_ctrls0.perBankWrBursts::4             3927                       # Per bank write bursts
system.mem_ctrls0.perBankWrBursts::5             4078                       # Per bank write bursts
system.mem_ctrls0.perBankWrBursts::6             3983                       # Per bank write bursts
system.mem_ctrls0.perBankWrBursts::7             3947                       # Per bank write bursts
system.mem_ctrls0.perBankWrBursts::8             3818                       # Per bank write bursts
system.mem_ctrls0.perBankWrBursts::9             4072                       # Per bank write bursts
system.mem_ctrls0.perBankWrBursts::10            3842                       # Per bank write bursts
system.mem_ctrls0.perBankWrBursts::11            3777                       # Per bank write bursts
system.mem_ctrls0.perBankWrBursts::12            3724                       # Per bank write bursts
system.mem_ctrls0.perBankWrBursts::13            3761                       # Per bank write bursts
system.mem_ctrls0.perBankWrBursts::14            4009                       # Per bank write bursts
system.mem_ctrls0.perBankWrBursts::15            3873                       # Per bank write bursts
system.mem_ctrls0.numRdRetry                      679                       # Number of times read queue was full causing retry
system.mem_ctrls0.numWrRetry                      339                       # Number of times write queue was full causing retry
system.mem_ctrls0.totGap                  59770908500                       # Total gap between requests
system.mem_ctrls0.readPktSize::0                    0                       # Read request sizes (log2)
system.mem_ctrls0.readPktSize::1                    0                       # Read request sizes (log2)
system.mem_ctrls0.readPktSize::2                    0                       # Read request sizes (log2)
system.mem_ctrls0.readPktSize::3                    0                       # Read request sizes (log2)
system.mem_ctrls0.readPktSize::4                    0                       # Read request sizes (log2)
system.mem_ctrls0.readPktSize::5                    0                       # Read request sizes (log2)
system.mem_ctrls0.readPktSize::6               219288                       # Read request sizes (log2)
system.mem_ctrls0.writePktSize::0                   0                       # Write request sizes (log2)
system.mem_ctrls0.writePktSize::1                   0                       # Write request sizes (log2)
system.mem_ctrls0.writePktSize::2                   0                       # Write request sizes (log2)
system.mem_ctrls0.writePktSize::3                   0                       # Write request sizes (log2)
system.mem_ctrls0.writePktSize::4                   0                       # Write request sizes (log2)
system.mem_ctrls0.writePktSize::5                   0                       # Write request sizes (log2)
system.mem_ctrls0.writePktSize::6               62620                       # Write request sizes (log2)
system.mem_ctrls0.rdQLenPdf::0                 160424                       # What read queue length does an incoming req see
system.mem_ctrls0.rdQLenPdf::1                  42194                       # What read queue length does an incoming req see
system.mem_ctrls0.rdQLenPdf::2                  11300                       # What read queue length does an incoming req see
system.mem_ctrls0.rdQLenPdf::3                   2655                       # What read queue length does an incoming req see
system.mem_ctrls0.rdQLenPdf::4                    659                       # What read queue length does an incoming req see
system.mem_ctrls0.rdQLenPdf::5                    235                       # What read queue length does an incoming req see
system.mem_ctrls0.rdQLenPdf::6                    157                       # What read queue length does an incoming req see
system.mem_ctrls0.rdQLenPdf::7                     97                       # What read queue length does an incoming req see
system.mem_ctrls0.rdQLenPdf::8                     81                       # What read queue length does an incoming req see
system.mem_ctrls0.rdQLenPdf::9                     70                       # What read queue length does an incoming req see
system.mem_ctrls0.rdQLenPdf::10                    47                       # What read queue length does an incoming req see
system.mem_ctrls0.rdQLenPdf::11                    34                       # What read queue length does an incoming req see
system.mem_ctrls0.rdQLenPdf::12                    25                       # What read queue length does an incoming req see
system.mem_ctrls0.rdQLenPdf::13                    28                       # What read queue length does an incoming req see
system.mem_ctrls0.rdQLenPdf::14                    36                       # What read queue length does an incoming req see
system.mem_ctrls0.rdQLenPdf::15                    37                       # What read queue length does an incoming req see
system.mem_ctrls0.rdQLenPdf::16                    31                       # What read queue length does an incoming req see
system.mem_ctrls0.rdQLenPdf::17                    22                       # What read queue length does an incoming req see
system.mem_ctrls0.rdQLenPdf::18                    24                       # What read queue length does an incoming req see
system.mem_ctrls0.rdQLenPdf::19                    32                       # What read queue length does an incoming req see
system.mem_ctrls0.rdQLenPdf::20                    22                       # What read queue length does an incoming req see
system.mem_ctrls0.rdQLenPdf::21                    25                       # What read queue length does an incoming req see
system.mem_ctrls0.rdQLenPdf::22                    23                       # What read queue length does an incoming req see
system.mem_ctrls0.rdQLenPdf::23                    26                       # What read queue length does an incoming req see
system.mem_ctrls0.rdQLenPdf::24                    43                       # What read queue length does an incoming req see
system.mem_ctrls0.rdQLenPdf::25                    38                       # What read queue length does an incoming req see
system.mem_ctrls0.rdQLenPdf::26                    25                       # What read queue length does an incoming req see
system.mem_ctrls0.rdQLenPdf::27                    32                       # What read queue length does an incoming req see
system.mem_ctrls0.rdQLenPdf::28                    30                       # What read queue length does an incoming req see
system.mem_ctrls0.rdQLenPdf::29                    28                       # What read queue length does an incoming req see
system.mem_ctrls0.rdQLenPdf::30                    31                       # What read queue length does an incoming req see
system.mem_ctrls0.rdQLenPdf::31                   752                       # What read queue length does an incoming req see
system.mem_ctrls0.wrQLenPdf::0                  12199                       # What write queue length does an incoming req see
system.mem_ctrls0.wrQLenPdf::1                  12387                       # What write queue length does an incoming req see
system.mem_ctrls0.wrQLenPdf::2                  12364                       # What write queue length does an incoming req see
system.mem_ctrls0.wrQLenPdf::3                  12368                       # What write queue length does an incoming req see
system.mem_ctrls0.wrQLenPdf::4                  12318                       # What write queue length does an incoming req see
system.mem_ctrls0.wrQLenPdf::5                    242                       # What write queue length does an incoming req see
system.mem_ctrls0.wrQLenPdf::6                    187                       # What write queue length does an incoming req see
system.mem_ctrls0.wrQLenPdf::7                    555                       # What write queue length does an incoming req see
system.mem_ctrls0.bytesPerActivate::samples        85275                       # Bytes accessed per row activation
system.mem_ctrls0.bytesPerActivate::mean   211.550114                       # Bytes accessed per row activation
system.mem_ctrls0.bytesPerActivate::gmean   136.228690                       # Bytes accessed per row activation
system.mem_ctrls0.bytesPerActivate::stdev   239.782568                       # Bytes accessed per row activation
system.mem_ctrls0.bytesPerActivate::0-127        41268     48.39%     48.39% # Bytes accessed per row activation
system.mem_ctrls0.bytesPerActivate::128-255        17772     20.84%     69.23% # Bytes accessed per row activation
system.mem_ctrls0.bytesPerActivate::256-383        14847     17.41%     86.65% # Bytes accessed per row activation
system.mem_ctrls0.bytesPerActivate::384-511         2659      3.12%     89.76% # Bytes accessed per row activation
system.mem_ctrls0.bytesPerActivate::512-639         1781      2.09%     91.85% # Bytes accessed per row activation
system.mem_ctrls0.bytesPerActivate::640-767         1300      1.52%     93.38% # Bytes accessed per row activation
system.mem_ctrls0.bytesPerActivate::768-895         1146      1.34%     94.72% # Bytes accessed per row activation
system.mem_ctrls0.bytesPerActivate::896-1023          952      1.12%     95.84% # Bytes accessed per row activation
system.mem_ctrls0.bytesPerActivate::1024-1151         3550      4.16%    100.00% # Bytes accessed per row activation
system.mem_ctrls0.bytesPerActivate::total        85275                       # Bytes accessed per row activation
system.mem_ctrls0.rdPerTurnAround::samples        12239                       # Reads before turning the bus around for writes
system.mem_ctrls0.rdPerTurnAround::mean     17.831849                       # Reads before turning the bus around for writes
system.mem_ctrls0.rdPerTurnAround::stdev    76.826700                       # Reads before turning the bus around for writes
system.mem_ctrls0.rdPerTurnAround::0-127        11870     96.99%     96.99% # Reads before turning the bus around for writes
system.mem_ctrls0.rdPerTurnAround::128-255          185      1.51%     98.50% # Reads before turning the bus around for writes
system.mem_ctrls0.rdPerTurnAround::256-383           82      0.67%     99.17% # Reads before turning the bus around for writes
system.mem_ctrls0.rdPerTurnAround::384-511           50      0.41%     99.58% # Reads before turning the bus around for writes
system.mem_ctrls0.rdPerTurnAround::512-639           28      0.23%     99.80% # Reads before turning the bus around for writes
system.mem_ctrls0.rdPerTurnAround::640-767           11      0.09%     99.89% # Reads before turning the bus around for writes
system.mem_ctrls0.rdPerTurnAround::768-895            1      0.01%     99.90% # Reads before turning the bus around for writes
system.mem_ctrls0.rdPerTurnAround::896-1023            3      0.02%     99.93% # Reads before turning the bus around for writes
system.mem_ctrls0.rdPerTurnAround::1024-1151            3      0.02%     99.95% # Reads before turning the bus around for writes
system.mem_ctrls0.rdPerTurnAround::1152-1279            1      0.01%     99.96% # Reads before turning the bus around for writes
system.mem_ctrls0.rdPerTurnAround::1280-1407            1      0.01%     99.97% # Reads before turning the bus around for writes
system.mem_ctrls0.rdPerTurnAround::1408-1535            1      0.01%     99.98% # Reads before turning the bus around for writes
system.mem_ctrls0.rdPerTurnAround::1664-1791            1      0.01%     99.98% # Reads before turning the bus around for writes
system.mem_ctrls0.rdPerTurnAround::1792-1919            1      0.01%     99.99% # Reads before turning the bus around for writes
system.mem_ctrls0.rdPerTurnAround::3968-4095            1      0.01%    100.00% # Reads before turning the bus around for writes
system.mem_ctrls0.rdPerTurnAround::total        12239                       # Reads before turning the bus around for writes
system.mem_ctrls0.wrPerTurnAround::samples        12239                       # Writes before turning the bus around for reads
system.mem_ctrls0.wrPerTurnAround::mean      5.116431                       # Writes before turning the bus around for reads
system.mem_ctrls0.wrPerTurnAround::gmean     5.078829                       # Writes before turning the bus around for reads
system.mem_ctrls0.wrPerTurnAround::stdev     0.887120                       # Writes before turning the bus around for reads
system.mem_ctrls0.wrPerTurnAround::4-7          12113     98.97%     98.97% # Writes before turning the bus around for reads
system.mem_ctrls0.wrPerTurnAround::8-11            50      0.41%     99.38% # Writes before turning the bus around for reads
system.mem_ctrls0.wrPerTurnAround::12-15           20      0.16%     99.54% # Writes before turning the bus around for reads
system.mem_ctrls0.wrPerTurnAround::16-19           56      0.46%    100.00% # Writes before turning the bus around for reads
system.mem_ctrls0.wrPerTurnAround::total        12239                       # Writes before turning the bus around for reads
system.mem_ctrls0.totQLat                  3068035799                       # Total ticks spent queuing
system.mem_ctrls0.totMemAccLat             7179217049                       # Total ticks spent from burst creation until serviced by the DRAM
system.mem_ctrls0.totBusLat                1096315000                       # Total ticks spent in databus transfers
system.mem_ctrls0.avgQLat                    13992.49                       # Average queueing delay per DRAM burst
system.mem_ctrls0.avgBusLat                   5000.00                       # Average bus latency per DRAM burst
system.mem_ctrls0.avgMemAccLat               32742.49                       # Average memory access latency per DRAM burst
system.mem_ctrls0.avgRdBW                      234.78                       # Average DRAM read bandwidth in MiByte/s
system.mem_ctrls0.avgWrBW                       67.05                       # Average achieved write bandwidth in MiByte/s
system.mem_ctrls0.avgRdBWSys                   234.80                       # Average system read bandwidth in MiByte/s
system.mem_ctrls0.avgWrBWSys                    67.05                       # Average system write bandwidth in MiByte/s
system.mem_ctrls0.peakBW                     12800.00                       # Theoretical peak bandwidth in MiByte/s
system.mem_ctrls0.busUtil                        2.36                       # Data bus utilization in percentage
system.mem_ctrls0.busUtilRead                    1.83                       # Data bus utilization in percentage for reads
system.mem_ctrls0.busUtilWrite                   0.52                       # Data bus utilization in percentage for writes
system.mem_ctrls0.avgRdQLen                      1.12                       # Average read queue length when enqueuing
system.mem_ctrls0.avgWrQLen                      2.86                       # Average write queue length when enqueuing
system.mem_ctrls0.readRowHits                  158039                       # Number of row buffer hits during reads
system.mem_ctrls0.writeRowHits                  38563                       # Number of row buffer hits during writes
system.mem_ctrls0.readRowHitRate                72.08                       # Row buffer hit rate for reads
system.mem_ctrls0.writeRowHitRate               61.58                       # Row buffer hit rate for writes
system.mem_ctrls0.avgGap                    212022.75                       # Average gap between requests
system.mem_ctrls0.pageHitRate                   69.75                       # Row buffer hit rate, read and write combined
system.mem_ctrls0.memoryStateTime::IDLE   10797299250                       # Time in different power states
system.mem_ctrls0.memoryStateTime::REF     1995760000                       # Time in different power states
system.mem_ctrls0.memoryStateTime::PRE_PDN            0                       # Time in different power states
system.mem_ctrls0.memoryStateTime::ACT    46974469500                       # Time in different power states
system.mem_ctrls0.memoryStateTime::ACT_PDN            0                       # Time in different power states
system.mem_ctrls0.actEnergy::0              325495800                       # Energy for activate commands per rank (pJ)
system.mem_ctrls0.actEnergy::1              319152960                       # Energy for activate commands per rank (pJ)
system.mem_ctrls0.preEnergy::0              177601875                       # Energy for precharge commands per rank (pJ)
system.mem_ctrls0.preEnergy::1              174141000                       # Energy for precharge commands per rank (pJ)
system.mem_ctrls0.readEnergy::0             862477200                       # Energy for read commands per rank (pJ)
system.mem_ctrls0.readEnergy::1             847665000                       # Energy for read commands per rank (pJ)
system.mem_ctrls0.writeEnergy::0            205701120                       # Energy for write commands per rank (pJ)
system.mem_ctrls0.writeEnergy::1            200076480                       # Energy for write commands per rank (pJ)
system.mem_ctrls0.refreshEnergy::0         3903706560                       # Energy for refresh commands per rank (pJ)
system.mem_ctrls0.refreshEnergy::1         3903706560                       # Energy for refresh commands per rank (pJ)
system.mem_ctrls0.actBackEnergy::0        25629455205                       # Energy for active background per rank (pJ)
system.mem_ctrls0.actBackEnergy::1        24935821920                       # Energy for active background per rank (pJ)
system.mem_ctrls0.preBackEnergy::0        13378530750                       # Energy for precharge background per rank (pJ)
system.mem_ctrls0.preBackEnergy::1        13986981000                       # Energy for precharge background per rank (pJ)
system.mem_ctrls0.totalEnergy::0          44482968510                       # Total energy per rank (pJ)
system.mem_ctrls0.totalEnergy::1          44367544920                       # Total energy per rank (pJ)
system.mem_ctrls0.averagePower::0          744.266656                       # Core power per rank (mW)
system.mem_ctrls0.averagePower::1          742.335446                       # Core power per rank (mW)
system.mem_ctrls1.bytes_read::ruby.dir_cntrl1     13851136                       # Number of bytes read from this memory
system.mem_ctrls1.bytes_read::total          13851136                       # Number of bytes read from this memory
system.mem_ctrls1.bytes_written::ruby.dir_cntrl1      3840704                       # Number of bytes written to this memory
system.mem_ctrls1.bytes_written::total        3840704                       # Number of bytes written to this memory
system.mem_ctrls1.num_reads::ruby.dir_cntrl1       216424                       # Number of read requests responded to by this memory
system.mem_ctrls1.num_reads::total             216424                       # Number of read requests responded to by this memory
system.mem_ctrls1.num_writes::ruby.dir_cntrl1        60011                       # Number of write requests responded to by this memory
system.mem_ctrls1.num_writes::total             60011                       # Number of write requests responded to by this memory
system.mem_ctrls1.bw_read::ruby.dir_cntrl1    231735178                       # Total read bandwidth from this memory (bytes/s)
system.mem_ctrls1.bw_read::total            231735178                       # Total read bandwidth from this memory (bytes/s)
system.mem_ctrls1.bw_write::ruby.dir_cntrl1     64256551                       # Write bandwidth from this memory (bytes/s)
system.mem_ctrls1.bw_write::total            64256551                       # Write bandwidth from this memory (bytes/s)
system.mem_ctrls1.bw_total::ruby.dir_cntrl1    295991728                       # Total bandwidth to/from this memory (bytes/s)
system.mem_ctrls1.bw_total::total           295991728                       # Total bandwidth to/from this memory (bytes/s)
system.mem_ctrls1.readReqs                     216424                       # Number of read requests accepted
system.mem_ctrls1.writeReqs                     60011                       # Number of write requests accepted
system.mem_ctrls1.readBursts                   216424                       # Number of DRAM read bursts, including those serviced by the write queue
system.mem_ctrls1.writeBursts                   60011                       # Number of DRAM write bursts, including those merged in the write queue
system.mem_ctrls1.bytesReadDRAM              13849728                       # Total number of bytes read from DRAM
system.mem_ctrls1.bytesReadWrQ                   1408                       # Total number of bytes read from write queue
system.mem_ctrls1.bytesWritten                3840448                       # Total number of bytes written to DRAM
system.mem_ctrls1.bytesReadSys               13851136                       # Total read bytes from the system interface side
system.mem_ctrls1.bytesWrittenSys             3840704                       # Total written bytes from the system interface side
system.mem_ctrls1.servicedByWrQ                    22                       # Number of DRAM read bursts serviced by the write queue
system.mem_ctrls1.mergedWrBursts                    0                       # Number of DRAM write bursts merged with an existing one
system.mem_ctrls1.neitherReadNorWriteReqs            0                       # Number of requests that are neither read nor write
system.mem_ctrls1.perBankRdBursts::0            13290                       # Per bank write bursts
system.mem_ctrls1.perBankRdBursts::1            13819                       # Per bank write bursts
system.mem_ctrls1.perBankRdBursts::2            13485                       # Per bank write bursts
system.mem_ctrls1.perBankRdBursts::3            13893                       # Per bank write bursts
system.mem_ctrls1.perBankRdBursts::4            13534                       # Per bank write bursts
system.mem_ctrls1.perBankRdBursts::5            14120                       # Per bank write bursts
system.mem_ctrls1.perBankRdBursts::6            13534                       # Per bank write bursts
system.mem_ctrls1.perBankRdBursts::7            13509                       # Per bank write bursts
system.mem_ctrls1.perBankRdBursts::8            13400                       # Per bank write bursts
system.mem_ctrls1.perBankRdBursts::9            13712                       # Per bank write bursts
system.mem_ctrls1.perBankRdBursts::10           13419                       # Per bank write bursts
system.mem_ctrls1.perBankRdBursts::11           13657                       # Per bank write bursts
system.mem_ctrls1.perBankRdBursts::12           13210                       # Per bank write bursts
system.mem_ctrls1.perBankRdBursts::13           13105                       # Per bank write bursts
system.mem_ctrls1.perBankRdBursts::14           13294                       # Per bank write bursts
system.mem_ctrls1.perBankRdBursts::15           13421                       # Per bank write bursts
system.mem_ctrls1.perBankWrBursts::0             3686                       # Per bank write bursts
system.mem_ctrls1.perBankWrBursts::1             3780                       # Per bank write bursts
system.mem_ctrls1.perBankWrBursts::2             3765                       # Per bank write bursts
system.mem_ctrls1.perBankWrBursts::3             3979                       # Per bank write bursts
system.mem_ctrls1.perBankWrBursts::4             3771                       # Per bank write bursts
system.mem_ctrls1.perBankWrBursts::5             3923                       # Per bank write bursts
system.mem_ctrls1.perBankWrBursts::6             3803                       # Per bank write bursts
system.mem_ctrls1.perBankWrBursts::7             3779                       # Per bank write bursts
system.mem_ctrls1.perBankWrBursts::8             3663                       # Per bank write bursts
system.mem_ctrls1.perBankWrBursts::9             3898                       # Per bank write bursts
system.mem_ctrls1.perBankWrBursts::10            3678                       # Per bank write bursts
system.mem_ctrls1.perBankWrBursts::11            3611                       # Per bank write bursts
system.mem_ctrls1.perBankWrBursts::12            3566                       # Per bank write bursts
system.mem_ctrls1.perBankWrBursts::13            3595                       # Per bank write bursts
system.mem_ctrls1.perBankWrBursts::14            3794                       # Per bank write bursts
system.mem_ctrls1.perBankWrBursts::15            3716                       # Per bank write bursts
system.mem_ctrls1.numRdRetry                      478                       # Number of times read queue was full causing retry
system.mem_ctrls1.numWrRetry                      287                       # Number of times write queue was full causing retry
system.mem_ctrls1.totGap                  59770649500                       # Total gap between requests
system.mem_ctrls1.readPktSize::0                    0                       # Read request sizes (log2)
system.mem_ctrls1.readPktSize::1                    0                       # Read request sizes (log2)
system.mem_ctrls1.readPktSize::2                    0                       # Read request sizes (log2)
system.mem_ctrls1.readPktSize::3                    0                       # Read request sizes (log2)
system.mem_ctrls1.readPktSize::4                    0                       # Read request sizes (log2)
system.mem_ctrls1.readPktSize::5                    0                       # Read request sizes (log2)
system.mem_ctrls1.readPktSize::6               216424                       # Read request sizes (log2)
system.mem_ctrls1.writePktSize::0                   0                       # Write request sizes (log2)
system.mem_ctrls1.writePktSize::1                   0                       # Write request sizes (log2)
system.mem_ctrls1.writePktSize::2                   0                       # Write request sizes (log2)
system.mem_ctrls1.writePktSize::3                   0                       # Write request sizes (log2)
system.mem_ctrls1.writePktSize::4                   0                       # Write request sizes (log2)
system.mem_ctrls1.writePktSize::5                   0                       # Write request sizes (log2)
system.mem_ctrls1.writePktSize::6               60011                       # Write request sizes (log2)
system.mem_ctrls1.rdQLenPdf::0                 158212                       # What read queue length does an incoming req see
system.mem_ctrls1.rdQLenPdf::1                  42578                       # What read queue length does an incoming req see
system.mem_ctrls1.rdQLenPdf::2                  10792                       # What read queue length does an incoming req see
system.mem_ctrls1.rdQLenPdf::3                   2410                       # What read queue length does an incoming req see
system.mem_ctrls1.rdQLenPdf::4                    584                       # What read queue length does an incoming req see
system.mem_ctrls1.rdQLenPdf::5                    235                       # What read queue length does an incoming req see
system.mem_ctrls1.rdQLenPdf::6                    170                       # What read queue length does an incoming req see
system.mem_ctrls1.rdQLenPdf::7                    123                       # What read queue length does an incoming req see
system.mem_ctrls1.rdQLenPdf::8                     93                       # What read queue length does an incoming req see
system.mem_ctrls1.rdQLenPdf::9                     90                       # What read queue length does an incoming req see
system.mem_ctrls1.rdQLenPdf::10                    67                       # What read queue length does an incoming req see
system.mem_ctrls1.rdQLenPdf::11                    51                       # What read queue length does an incoming req see
system.mem_ctrls1.rdQLenPdf::12                    45                       # What read queue length does an incoming req see
system.mem_ctrls1.rdQLenPdf::13                    44                       # What read queue length does an incoming req see
system.mem_ctrls1.rdQLenPdf::14                    53                       # What read queue length does an incoming req see
system.mem_ctrls1.rdQLenPdf::15                    35                       # What read queue length does an incoming req see
system.mem_ctrls1.rdQLenPdf::16                    29                       # What read queue length does an incoming req see
system.mem_ctrls1.rdQLenPdf::17                    27                       # What read queue length does an incoming req see
system.mem_ctrls1.rdQLenPdf::18                    26                       # What read queue length does an incoming req see
system.mem_ctrls1.rdQLenPdf::19                    30                       # What read queue length does an incoming req see
system.mem_ctrls1.rdQLenPdf::20                    19                       # What read queue length does an incoming req see
system.mem_ctrls1.rdQLenPdf::21                    23                       # What read queue length does an incoming req see
system.mem_ctrls1.rdQLenPdf::22                    17                       # What read queue length does an incoming req see
system.mem_ctrls1.rdQLenPdf::23                    17                       # What read queue length does an incoming req see
system.mem_ctrls1.rdQLenPdf::24                    14                       # What read queue length does an incoming req see
system.mem_ctrls1.rdQLenPdf::25                    16                       # What read queue length does an incoming req see
system.mem_ctrls1.rdQLenPdf::26                    15                       # What read queue length does an incoming req see
system.mem_ctrls1.rdQLenPdf::27                    11                       # What read queue length does an incoming req see
system.mem_ctrls1.rdQLenPdf::28                    12                       # What read queue length does an incoming req see
system.mem_ctrls1.rdQLenPdf::29                    16                       # What read queue length does an incoming req see
system.mem_ctrls1.rdQLenPdf::30                    27                       # What read queue length does an incoming req see
system.mem_ctrls1.rdQLenPdf::31                   521                       # What read queue length does an incoming req see
system.mem_ctrls1.wrQLenPdf::0                  11692                       # What write queue length does an incoming req see
system.mem_ctrls1.wrQLenPdf::1                  11891                       # What write queue length does an incoming req see
system.mem_ctrls1.wrQLenPdf::2                  11875                       # What write queue length does an incoming req see
system.mem_ctrls1.wrQLenPdf::3                  11827                       # What write queue length does an incoming req see
system.mem_ctrls1.wrQLenPdf::4                  11822                       # What write queue length does an incoming req see
system.mem_ctrls1.wrQLenPdf::5                    251                       # What write queue length does an incoming req see
system.mem_ctrls1.wrQLenPdf::6                    198                       # What write queue length does an incoming req see
system.mem_ctrls1.wrQLenPdf::7                    455                       # What write queue length does an incoming req see
system.mem_ctrls1.bytesPerActivate::samples        80907                       # Bytes accessed per row activation
system.mem_ctrls1.bytesPerActivate::mean   218.637992                       # Bytes accessed per row activation
system.mem_ctrls1.bytesPerActivate::gmean   140.016433                       # Bytes accessed per row activation
system.mem_ctrls1.bytesPerActivate::stdev   245.702656                       # Bytes accessed per row activation
system.mem_ctrls1.bytesPerActivate::0-127        38008     46.98%     46.98% # Bytes accessed per row activation
system.mem_ctrls1.bytesPerActivate::128-255        16983     20.99%     67.97% # Bytes accessed per row activation
system.mem_ctrls1.bytesPerActivate::256-383        14414     17.82%     85.78% # Bytes accessed per row activation
system.mem_ctrls1.bytesPerActivate::384-511         2614      3.23%     89.01% # Bytes accessed per row activation
system.mem_ctrls1.bytesPerActivate::512-639         1867      2.31%     91.32% # Bytes accessed per row activation
system.mem_ctrls1.bytesPerActivate::640-767         1322      1.63%     92.96% # Bytes accessed per row activation
system.mem_ctrls1.bytesPerActivate::768-895         1113      1.38%     94.33% # Bytes accessed per row activation
system.mem_ctrls1.bytesPerActivate::896-1023          967      1.20%     95.53% # Bytes accessed per row activation
system.mem_ctrls1.bytesPerActivate::1024-1151         3619      4.47%    100.00% # Bytes accessed per row activation
system.mem_ctrls1.bytesPerActivate::total        80907                       # Bytes accessed per row activation
system.mem_ctrls1.rdPerTurnAround::samples        11725                       # Reads before turning the bus around for writes
system.mem_ctrls1.rdPerTurnAround::mean     18.290320                       # Reads before turning the bus around for writes
system.mem_ctrls1.rdPerTurnAround::stdev    76.549136                       # Reads before turning the bus around for writes
system.mem_ctrls1.rdPerTurnAround::0-127        11363     96.91%     96.91% # Reads before turning the bus around for writes
system.mem_ctrls1.rdPerTurnAround::128-255          183      1.56%     98.47% # Reads before turning the bus around for writes
system.mem_ctrls1.rdPerTurnAround::256-383           82      0.70%     99.17% # Reads before turning the bus around for writes
system.mem_ctrls1.rdPerTurnAround::384-511           37      0.32%     99.49% # Reads before turning the bus around for writes
system.mem_ctrls1.rdPerTurnAround::512-639           30      0.26%     99.74% # Reads before turning the bus around for writes
system.mem_ctrls1.rdPerTurnAround::640-767           16      0.14%     99.88% # Reads before turning the bus around for writes
system.mem_ctrls1.rdPerTurnAround::768-895            4      0.03%     99.91% # Reads before turning the bus around for writes
system.mem_ctrls1.rdPerTurnAround::896-1023            2      0.02%     99.93% # Reads before turning the bus around for writes
system.mem_ctrls1.rdPerTurnAround::1024-1151            1      0.01%     99.94% # Reads before turning the bus around for writes
system.mem_ctrls1.rdPerTurnAround::1152-1279            1      0.01%     99.95% # Reads before turning the bus around for writes
system.mem_ctrls1.rdPerTurnAround::1536-1663            1      0.01%     99.96% # Reads before turning the bus around for writes
system.mem_ctrls1.rdPerTurnAround::1664-1791            3      0.03%     99.98% # Reads before turning the bus around for writes
system.mem_ctrls1.rdPerTurnAround::1792-1919            1      0.01%     99.99% # Reads before turning the bus around for writes
system.mem_ctrls1.rdPerTurnAround::2816-2943            1      0.01%    100.00% # Reads before turning the bus around for writes
system.mem_ctrls1.rdPerTurnAround::total        11725                       # Reads before turning the bus around for writes
system.mem_ctrls1.wrPerTurnAround::samples        11725                       # Writes before turning the bus around for reads
system.mem_ctrls1.wrPerTurnAround::mean      5.117868                       # Writes before turning the bus around for reads
system.mem_ctrls1.wrPerTurnAround::gmean     5.080927                       # Writes before turning the bus around for reads
system.mem_ctrls1.wrPerTurnAround::stdev     0.871333                       # Writes before turning the bus around for reads
system.mem_ctrls1.wrPerTurnAround::4-7          11598     98.92%     98.92% # Writes before turning the bus around for reads
system.mem_ctrls1.wrPerTurnAround::8-11            54      0.46%     99.38% # Writes before turning the bus around for reads
system.mem_ctrls1.wrPerTurnAround::12-15           27      0.23%     99.61% # Writes before turning the bus around for reads
system.mem_ctrls1.wrPerTurnAround::16-19           46      0.39%    100.00% # Writes before turning the bus around for reads
system.mem_ctrls1.wrPerTurnAround::total        11725                       # Writes before turning the bus around for reads
system.mem_ctrls1.totQLat                  2862935838                       # Total ticks spent queuing
system.mem_ctrls1.totMemAccLat             6920473338                       # Total ticks spent from burst creation until serviced by the DRAM
system.mem_ctrls1.totBusLat                1082010000                       # Total ticks spent in databus transfers
system.mem_ctrls1.avgQLat                    13229.71                       # Average queueing delay per DRAM burst
system.mem_ctrls1.avgBusLat                   5000.00                       # Average bus latency per DRAM burst
system.mem_ctrls1.avgMemAccLat               31979.71                       # Average memory access latency per DRAM burst
system.mem_ctrls1.avgRdBW                      231.71                       # Average DRAM read bandwidth in MiByte/s
system.mem_ctrls1.avgWrBW                       64.25                       # Average achieved write bandwidth in MiByte/s
system.mem_ctrls1.avgRdBWSys                   231.74                       # Average system read bandwidth in MiByte/s
system.mem_ctrls1.avgWrBWSys                    64.26                       # Average system write bandwidth in MiByte/s
system.mem_ctrls1.peakBW                     12800.00                       # Theoretical peak bandwidth in MiByte/s
system.mem_ctrls1.busUtil                        2.31                       # Data bus utilization in percentage
system.mem_ctrls1.busUtilRead                    1.81                       # Data bus utilization in percentage for reads
system.mem_ctrls1.busUtilWrite                   0.50                       # Data bus utilization in percentage for writes
system.mem_ctrls1.avgRdQLen                      1.11                       # Average read queue length when enqueuing
system.mem_ctrls1.avgWrQLen                      2.91                       # Average write queue length when enqueuing
system.mem_ctrls1.readRowHits                  156601                       # Number of row buffer hits during reads
system.mem_ctrls1.writeRowHits                  38895                       # Number of row buffer hits during writes
system.mem_ctrls1.readRowHitRate                72.37                       # Row buffer hit rate for reads
system.mem_ctrls1.writeRowHitRate               64.81                       # Row buffer hit rate for writes
system.mem_ctrls1.avgGap                    216219.54                       # Average gap between requests
system.mem_ctrls1.pageHitRate                   70.73                       # Row buffer hit rate, read and write combined
system.mem_ctrls1.memoryStateTime::IDLE   11226552750                       # Time in different power states
system.mem_ctrls1.memoryStateTime::REF     1995760000                       # Time in different power states
system.mem_ctrls1.memoryStateTime::PRE_PDN            0                       # Time in different power states
system.mem_ctrls1.memoryStateTime::ACT    46546007250                       # Time in different power states
system.mem_ctrls1.memoryStateTime::ACT_PDN            0                       # Time in different power states
system.mem_ctrls1.actEnergy::0              309831480                       # Energy for activate commands per rank (pJ)
system.mem_ctrls1.actEnergy::1              301825440                       # Energy for activate commands per rank (pJ)
system.mem_ctrls1.preEnergy::0              169054875                       # Energy for precharge commands per rank (pJ)
system.mem_ctrls1.preEnergy::1              164686500                       # Energy for precharge commands per rank (pJ)
system.mem_ctrls1.readEnergy::0             851572800                       # Energy for read commands per rank (pJ)
system.mem_ctrls1.readEnergy::1             836261400                       # Energy for read commands per rank (pJ)
system.mem_ctrls1.writeEnergy::0            197549280                       # Energy for write commands per rank (pJ)
system.mem_ctrls1.writeEnergy::1            191296080                       # Energy for write commands per rank (pJ)
system.mem_ctrls1.refreshEnergy::0         3903706560                       # Energy for refresh commands per rank (pJ)
system.mem_ctrls1.refreshEnergy::1         3903706560                       # Energy for refresh commands per rank (pJ)
system.mem_ctrls1.actBackEnergy::0        25323071940                       # Energy for active background per rank (pJ)
system.mem_ctrls1.actBackEnergy::1        24359932395                       # Energy for active background per rank (pJ)
system.mem_ctrls1.preBackEnergy::0        13647288000                       # Energy for precharge background per rank (pJ)
system.mem_ctrls1.preBackEnergy::1        14492147250                       # Energy for precharge background per rank (pJ)
system.mem_ctrls1.totalEnergy::0          44402074935                       # Total energy per rank (pJ)
system.mem_ctrls1.totalEnergy::1          44249855625                       # Total energy per rank (pJ)
system.mem_ctrls1.averagePower::0          742.913185                       # Core power per rank (mW)
system.mem_ctrls1.averagePower::1          740.366328                       # Core power per rank (mW)
system.mem_ctrls2.bytes_read::ruby.dir_cntrl2     13851776                       # Number of bytes read from this memory
system.mem_ctrls2.bytes_read::total          13851776                       # Number of bytes read from this memory
system.mem_ctrls2.bytes_written::ruby.dir_cntrl2      3841920                       # Number of bytes written to this memory
system.mem_ctrls2.bytes_written::total        3841920                       # Number of bytes written to this memory
system.mem_ctrls2.num_reads::ruby.dir_cntrl2       216434                       # Number of read requests responded to by this memory
system.mem_ctrls2.num_reads::total             216434                       # Number of read requests responded to by this memory
system.mem_ctrls2.num_writes::ruby.dir_cntrl2        60030                       # Number of write requests responded to by this memory
system.mem_ctrls2.num_writes::total             60030                       # Number of write requests responded to by this memory
system.mem_ctrls2.bw_read::ruby.dir_cntrl2    231745885                       # Total read bandwidth from this memory (bytes/s)
system.mem_ctrls2.bw_read::total            231745885                       # Total read bandwidth from this memory (bytes/s)
system.mem_ctrls2.bw_write::ruby.dir_cntrl2     64276895                       # Write bandwidth from this memory (bytes/s)
system.mem_ctrls2.bw_write::total            64276895                       # Write bandwidth from this memory (bytes/s)
system.mem_ctrls2.bw_total::ruby.dir_cntrl2    296022780                       # Total bandwidth to/from this memory (bytes/s)
system.mem_ctrls2.bw_total::total           296022780                       # Total bandwidth to/from this memory (bytes/s)
system.mem_ctrls2.readReqs                     216434                       # Number of read requests accepted
system.mem_ctrls2.writeReqs                     60030                       # Number of write requests accepted
system.mem_ctrls2.readBursts                   216434                       # Number of DRAM read bursts, including those serviced by the write queue
system.mem_ctrls2.writeBursts                   60030                       # Number of DRAM write bursts, including those merged in the write queue
system.mem_ctrls2.bytesReadDRAM              13851008                       # Total number of bytes read from DRAM
system.mem_ctrls2.bytesReadWrQ                    768                       # Total number of bytes read from write queue
system.mem_ctrls2.bytesWritten                3841920                       # Total number of bytes written to DRAM
system.mem_ctrls2.bytesReadSys               13851776                       # Total read bytes from the system interface side
system.mem_ctrls2.bytesWrittenSys             3841920                       # Total written bytes from the system interface side
system.mem_ctrls2.servicedByWrQ                    12                       # Number of DRAM read bursts serviced by the write queue
system.mem_ctrls2.mergedWrBursts                    0                       # Number of DRAM write bursts merged with an existing one
system.mem_ctrls2.neitherReadNorWriteReqs            0                       # Number of requests that are neither read nor write
system.mem_ctrls2.perBankRdBursts::0            13292                       # Per bank write bursts
system.mem_ctrls2.perBankRdBursts::1            13833                       # Per bank write bursts
system.mem_ctrls2.perBankRdBursts::2            13508                       # Per bank write bursts
system.mem_ctrls2.perBankRdBursts::3            13918                       # Per bank write bursts
system.mem_ctrls2.perBankRdBursts::4            13546                       # Per bank write bursts
system.mem_ctrls2.perBankRdBursts::5            14109                       # Per bank write bursts
system.mem_ctrls2.perBankRdBursts::6            13493                       # Per bank write bursts
system.mem_ctrls2.perBankRdBursts::7            13498                       # Per bank write bursts
system.mem_ctrls2.perBankRdBursts::8            13395                       # Per bank write bursts
system.mem_ctrls2.perBankRdBursts::9            13711                       # Per bank write bursts
system.mem_ctrls2.perBankRdBursts::10           13425                       # Per bank write bursts
system.mem_ctrls2.perBankRdBursts::11           13701                       # Per bank write bursts
system.mem_ctrls2.perBankRdBursts::12           13205                       # Per bank write bursts
system.mem_ctrls2.perBankRdBursts::13           13068                       # Per bank write bursts
system.mem_ctrls2.perBankRdBursts::14           13299                       # Per bank write bursts
system.mem_ctrls2.perBankRdBursts::15           13421                       # Per bank write bursts
system.mem_ctrls2.perBankWrBursts::0             3682                       # Per bank write bursts
system.mem_ctrls2.perBankWrBursts::1             3777                       # Per bank write bursts
system.mem_ctrls2.perBankWrBursts::2             3762                       # Per bank write bursts
system.mem_ctrls2.perBankWrBursts::3             3992                       # Per bank write bursts
system.mem_ctrls2.perBankWrBursts::4             3770                       # Per bank write bursts
system.mem_ctrls2.perBankWrBursts::5             3914                       # Per bank write bursts
system.mem_ctrls2.perBankWrBursts::6             3812                       # Per bank write bursts
system.mem_ctrls2.perBankWrBursts::7             3786                       # Per bank write bursts
system.mem_ctrls2.perBankWrBursts::8             3665                       # Per bank write bursts
system.mem_ctrls2.perBankWrBursts::9             3906                       # Per bank write bursts
system.mem_ctrls2.perBankWrBursts::10            3674                       # Per bank write bursts
system.mem_ctrls2.perBankWrBursts::11            3608                       # Per bank write bursts
system.mem_ctrls2.perBankWrBursts::12            3575                       # Per bank write bursts
system.mem_ctrls2.perBankWrBursts::13            3589                       # Per bank write bursts
system.mem_ctrls2.perBankWrBursts::14            3799                       # Per bank write bursts
system.mem_ctrls2.perBankWrBursts::15            3719                       # Per bank write bursts
system.mem_ctrls2.numRdRetry                      497                       # Number of times read queue was full causing retry
system.mem_ctrls2.numWrRetry                      303                       # Number of times write queue was full causing retry
system.mem_ctrls2.totGap                  59770696500                       # Total gap between requests
system.mem_ctrls2.readPktSize::0                    0                       # Read request sizes (log2)
system.mem_ctrls2.readPktSize::1                    0                       # Read request sizes (log2)
system.mem_ctrls2.readPktSize::2                    0                       # Read request sizes (log2)
system.mem_ctrls2.readPktSize::3                    0                       # Read request sizes (log2)
system.mem_ctrls2.readPktSize::4                    0                       # Read request sizes (log2)
system.mem_ctrls2.readPktSize::5                    0                       # Read request sizes (log2)
system.mem_ctrls2.readPktSize::6               216434                       # Read request sizes (log2)
system.mem_ctrls2.writePktSize::0                   0                       # Write request sizes (log2)
system.mem_ctrls2.writePktSize::1                   0                       # Write request sizes (log2)
system.mem_ctrls2.writePktSize::2                   0                       # Write request sizes (log2)
system.mem_ctrls2.writePktSize::3                   0                       # Write request sizes (log2)
system.mem_ctrls2.writePktSize::4                   0                       # Write request sizes (log2)
system.mem_ctrls2.writePktSize::5                   0                       # Write request sizes (log2)
system.mem_ctrls2.writePktSize::6               60030                       # Write request sizes (log2)
system.mem_ctrls2.rdQLenPdf::0                 158515                       # What read queue length does an incoming req see
system.mem_ctrls2.rdQLenPdf::1                  42193                       # What read queue length does an incoming req see
system.mem_ctrls2.rdQLenPdf::2                  10833                       # What read queue length does an incoming req see
system.mem_ctrls2.rdQLenPdf::3                   2506                       # What read queue length does an incoming req see
system.mem_ctrls2.rdQLenPdf::4                    613                       # What read queue length does an incoming req see
system.mem_ctrls2.rdQLenPdf::5                    218                       # What read queue length does an incoming req see
system.mem_ctrls2.rdQLenPdf::6                    141                       # What read queue length does an incoming req see
system.mem_ctrls2.rdQLenPdf::7                    112                       # What read queue length does an incoming req see
system.mem_ctrls2.rdQLenPdf::8                     67                       # What read queue length does an incoming req see
system.mem_ctrls2.rdQLenPdf::9                     58                       # What read queue length does an incoming req see
system.mem_ctrls2.rdQLenPdf::10                    46                       # What read queue length does an incoming req see
system.mem_ctrls2.rdQLenPdf::11                    36                       # What read queue length does an incoming req see
system.mem_ctrls2.rdQLenPdf::12                    41                       # What read queue length does an incoming req see
system.mem_ctrls2.rdQLenPdf::13                    34                       # What read queue length does an incoming req see
system.mem_ctrls2.rdQLenPdf::14                    28                       # What read queue length does an incoming req see
system.mem_ctrls2.rdQLenPdf::15                    23                       # What read queue length does an incoming req see
system.mem_ctrls2.rdQLenPdf::16                    28                       # What read queue length does an incoming req see
system.mem_ctrls2.rdQLenPdf::17                    39                       # What read queue length does an incoming req see
system.mem_ctrls2.rdQLenPdf::18                    25                       # What read queue length does an incoming req see
system.mem_ctrls2.rdQLenPdf::19                    25                       # What read queue length does an incoming req see
system.mem_ctrls2.rdQLenPdf::20                    20                       # What read queue length does an incoming req see
system.mem_ctrls2.rdQLenPdf::21                    21                       # What read queue length does an incoming req see
system.mem_ctrls2.rdQLenPdf::22                    22                       # What read queue length does an incoming req see
system.mem_ctrls2.rdQLenPdf::23                    29                       # What read queue length does an incoming req see
system.mem_ctrls2.rdQLenPdf::24                    29                       # What read queue length does an incoming req see
system.mem_ctrls2.rdQLenPdf::25                    24                       # What read queue length does an incoming req see
system.mem_ctrls2.rdQLenPdf::26                    27                       # What read queue length does an incoming req see
system.mem_ctrls2.rdQLenPdf::27                    25                       # What read queue length does an incoming req see
system.mem_ctrls2.rdQLenPdf::28                    20                       # What read queue length does an incoming req see
system.mem_ctrls2.rdQLenPdf::29                    29                       # What read queue length does an incoming req see
system.mem_ctrls2.rdQLenPdf::30                    32                       # What read queue length does an incoming req see
system.mem_ctrls2.rdQLenPdf::31                   563                       # What read queue length does an incoming req see
system.mem_ctrls2.wrQLenPdf::0                  11691                       # What write queue length does an incoming req see
system.mem_ctrls2.wrQLenPdf::1                  11864                       # What write queue length does an incoming req see
system.mem_ctrls2.wrQLenPdf::2                  11870                       # What write queue length does an incoming req see
system.mem_ctrls2.wrQLenPdf::3                  11868                       # What write queue length does an incoming req see
system.mem_ctrls2.wrQLenPdf::4                  11830                       # What write queue length does an incoming req see
system.mem_ctrls2.wrQLenPdf::5                    232                       # What write queue length does an incoming req see
system.mem_ctrls2.wrQLenPdf::6                    183                       # What write queue length does an incoming req see
system.mem_ctrls2.wrQLenPdf::7                    492                       # What write queue length does an incoming req see
system.mem_ctrls2.bytesPerActivate::samples        80796                       # Bytes accessed per row activation
system.mem_ctrls2.bytesPerActivate::mean   218.973216                       # Bytes accessed per row activation
system.mem_ctrls2.bytesPerActivate::gmean   140.223390                       # Bytes accessed per row activation
system.mem_ctrls2.bytesPerActivate::stdev   245.691691                       # Bytes accessed per row activation
system.mem_ctrls2.bytesPerActivate::0-127        37966     46.99%     46.99% # Bytes accessed per row activation
system.mem_ctrls2.bytesPerActivate::128-255        16716     20.69%     67.68% # Bytes accessed per row activation
system.mem_ctrls2.bytesPerActivate::256-383        14536     17.99%     85.67% # Bytes accessed per row activation
system.mem_ctrls2.bytesPerActivate::384-511         2679      3.32%     88.99% # Bytes accessed per row activation
system.mem_ctrls2.bytesPerActivate::512-639         1862      2.30%     91.29% # Bytes accessed per row activation
system.mem_ctrls2.bytesPerActivate::640-767         1344      1.66%     92.95% # Bytes accessed per row activation
system.mem_ctrls2.bytesPerActivate::768-895         1124      1.39%     94.35% # Bytes accessed per row activation
system.mem_ctrls2.bytesPerActivate::896-1023          947      1.17%     95.52% # Bytes accessed per row activation
system.mem_ctrls2.bytesPerActivate::1024-1151         3622      4.48%    100.00% # Bytes accessed per row activation
system.mem_ctrls2.bytesPerActivate::total        80796                       # Bytes accessed per row activation
system.mem_ctrls2.rdPerTurnAround::samples        11734                       # Reads before turning the bus around for writes
system.mem_ctrls2.rdPerTurnAround::mean     18.357423                       # Reads before turning the bus around for writes
system.mem_ctrls2.rdPerTurnAround::stdev    76.973173                       # Reads before turning the bus around for writes
system.mem_ctrls2.rdPerTurnAround::0-127        11376     96.95%     96.95% # Reads before turning the bus around for writes
system.mem_ctrls2.rdPerTurnAround::128-255          174      1.48%     98.43% # Reads before turning the bus around for writes
system.mem_ctrls2.rdPerTurnAround::256-383           80      0.68%     99.11% # Reads before turning the bus around for writes
system.mem_ctrls2.rdPerTurnAround::384-511           44      0.37%     99.49% # Reads before turning the bus around for writes
system.mem_ctrls2.rdPerTurnAround::512-639           31      0.26%     99.75% # Reads before turning the bus around for writes
system.mem_ctrls2.rdPerTurnAround::640-767           13      0.11%     99.86% # Reads before turning the bus around for writes
system.mem_ctrls2.rdPerTurnAround::768-895            3      0.03%     99.89% # Reads before turning the bus around for writes
system.mem_ctrls2.rdPerTurnAround::896-1023            4      0.03%     99.92% # Reads before turning the bus around for writes
system.mem_ctrls2.rdPerTurnAround::1024-1151            1      0.01%     99.93% # Reads before turning the bus around for writes
system.mem_ctrls2.rdPerTurnAround::1152-1279            2      0.02%     99.95% # Reads before turning the bus around for writes
system.mem_ctrls2.rdPerTurnAround::1280-1407            2      0.02%     99.97% # Reads before turning the bus around for writes
system.mem_ctrls2.rdPerTurnAround::1536-1663            1      0.01%     99.97% # Reads before turning the bus around for writes
system.mem_ctrls2.rdPerTurnAround::1792-1919            1      0.01%     99.98% # Reads before turning the bus around for writes
system.mem_ctrls2.rdPerTurnAround::1920-2047            1      0.01%     99.99% # Reads before turning the bus around for writes
system.mem_ctrls2.rdPerTurnAround::2816-2943            1      0.01%    100.00% # Reads before turning the bus around for writes
system.mem_ctrls2.rdPerTurnAround::total        11734                       # Reads before turning the bus around for writes
system.mem_ctrls2.wrPerTurnAround::samples        11734                       # Writes before turning the bus around for reads
system.mem_ctrls2.wrPerTurnAround::mean      5.115903                       # Writes before turning the bus around for reads
system.mem_ctrls2.wrPerTurnAround::gmean     5.078863                       # Writes before turning the bus around for reads
system.mem_ctrls2.wrPerTurnAround::stdev     0.879823                       # Writes before turning the bus around for reads
system.mem_ctrls2.wrPerTurnAround::4-7          11618     99.01%     99.01% # Writes before turning the bus around for reads
system.mem_ctrls2.wrPerTurnAround::8-11            41      0.35%     99.36% # Writes before turning the bus around for reads
system.mem_ctrls2.wrPerTurnAround::12-15           23      0.20%     99.56% # Writes before turning the bus around for reads
system.mem_ctrls2.wrPerTurnAround::16-19           52      0.44%    100.00% # Writes before turning the bus around for reads
system.mem_ctrls2.wrPerTurnAround::total        11734                       # Writes before turning the bus around for reads
system.mem_ctrls2.totQLat                  2894675596                       # Total ticks spent queuing
system.mem_ctrls2.totMemAccLat             6952588096                       # Total ticks spent from burst creation until serviced by the DRAM
system.mem_ctrls2.totBusLat                1082110000                       # Total ticks spent in databus transfers
system.mem_ctrls2.avgQLat                    13375.14                       # Average queueing delay per DRAM burst
system.mem_ctrls2.avgBusLat                   5000.00                       # Average bus latency per DRAM burst
system.mem_ctrls2.avgMemAccLat               32125.14                       # Average memory access latency per DRAM burst
system.mem_ctrls2.avgRdBW                      231.73                       # Average DRAM read bandwidth in MiByte/s
system.mem_ctrls2.avgWrBW                       64.28                       # Average achieved write bandwidth in MiByte/s
system.mem_ctrls2.avgRdBWSys                   231.75                       # Average system read bandwidth in MiByte/s
system.mem_ctrls2.avgWrBWSys                    64.28                       # Average system write bandwidth in MiByte/s
system.mem_ctrls2.peakBW                     12800.00                       # Theoretical peak bandwidth in MiByte/s
system.mem_ctrls2.busUtil                        2.31                       # Data bus utilization in percentage
system.mem_ctrls2.busUtilRead                    1.81                       # Data bus utilization in percentage for reads
system.mem_ctrls2.busUtilWrite                   0.50                       # Data bus utilization in percentage for writes
system.mem_ctrls2.avgRdQLen                      1.10                       # Average read queue length when enqueuing
system.mem_ctrls2.avgWrQLen                      2.99                       # Average write queue length when enqueuing
system.mem_ctrls2.readRowHits                  156713                       # Number of row buffer hits during reads
system.mem_ctrls2.writeRowHits                  38936                       # Number of row buffer hits during writes
system.mem_ctrls2.readRowHitRate                72.41                       # Row buffer hit rate for reads
system.mem_ctrls2.writeRowHitRate               64.86                       # Row buffer hit rate for writes
system.mem_ctrls2.avgGap                    216197.03                       # Average gap between requests
system.mem_ctrls2.pageHitRate                   70.77                       # Row buffer hit rate, read and write combined
system.mem_ctrls2.memoryStateTime::IDLE   11132021500                       # Time in different power states
system.mem_ctrls2.memoryStateTime::REF     1995760000                       # Time in different power states
system.mem_ctrls2.memoryStateTime::PRE_PDN            0                       # Time in different power states
system.mem_ctrls2.memoryStateTime::ACT    46640687000                       # Time in different power states
system.mem_ctrls2.memoryStateTime::ACT_PDN            0                       # Time in different power states
system.mem_ctrls2.actEnergy::0              309098160                       # Energy for activate commands per rank (pJ)
system.mem_ctrls2.actEnergy::1              301712040                       # Energy for activate commands per rank (pJ)
system.mem_ctrls2.preEnergy::0              168654750                       # Energy for precharge commands per rank (pJ)
system.mem_ctrls2.preEnergy::1              164624625                       # Energy for precharge commands per rank (pJ)
system.mem_ctrls2.readEnergy::0             851674200                       # Energy for read commands per rank (pJ)
system.mem_ctrls2.readEnergy::1             836316000                       # Energy for read commands per rank (pJ)
system.mem_ctrls2.writeEnergy::0            197607600                       # Energy for write commands per rank (pJ)
system.mem_ctrls2.writeEnergy::1            191386800                       # Energy for write commands per rank (pJ)
system.mem_ctrls2.refreshEnergy::0         3903706560                       # Energy for refresh commands per rank (pJ)
system.mem_ctrls2.refreshEnergy::1         3903706560                       # Energy for refresh commands per rank (pJ)
system.mem_ctrls2.actBackEnergy::0        25296341220                       # Energy for active background per rank (pJ)
system.mem_ctrls2.actBackEnergy::1        24508000440                       # Energy for active background per rank (pJ)
system.mem_ctrls2.preBackEnergy::0        13670736000                       # Energy for precharge background per rank (pJ)
system.mem_ctrls2.preBackEnergy::1        14362263000                       # Energy for precharge background per rank (pJ)
system.mem_ctrls2.totalEnergy::0          44397818490                       # Total energy per rank (pJ)
system.mem_ctrls2.totalEnergy::1          44268009465                       # Total energy per rank (pJ)
system.mem_ctrls2.averagePower::0          742.841968                       # Core power per rank (mW)
system.mem_ctrls2.averagePower::1          740.670069                       # Core power per rank (mW)
system.mem_ctrls3.bytes_read::ruby.dir_cntrl3     13836992                       # Number of bytes read from this memory
system.mem_ctrls3.bytes_read::total          13836992                       # Number of bytes read from this memory
system.mem_ctrls3.bytes_written::ruby.dir_cntrl3      3838464                       # Number of bytes written to this memory
system.mem_ctrls3.bytes_written::total        3838464                       # Number of bytes written to this memory
system.mem_ctrls3.num_reads::ruby.dir_cntrl3       216203                       # Number of read requests responded to by this memory
system.mem_ctrls3.num_reads::total             216203                       # Number of read requests responded to by this memory
system.mem_ctrls3.num_writes::ruby.dir_cntrl3        59976                       # Number of write requests responded to by this memory
system.mem_ctrls3.num_writes::total             59976                       # Number of write requests responded to by this memory
system.mem_ctrls3.bw_read::ruby.dir_cntrl3    231498543                       # Total read bandwidth from this memory (bytes/s)
system.mem_ctrls3.bw_read::total            231498543                       # Total read bandwidth from this memory (bytes/s)
system.mem_ctrls3.bw_write::ruby.dir_cntrl3     64219075                       # Write bandwidth from this memory (bytes/s)
system.mem_ctrls3.bw_write::total            64219075                       # Write bandwidth from this memory (bytes/s)
system.mem_ctrls3.bw_total::ruby.dir_cntrl3    295717617                       # Total bandwidth to/from this memory (bytes/s)
system.mem_ctrls3.bw_total::total           295717617                       # Total bandwidth to/from this memory (bytes/s)
system.mem_ctrls3.readReqs                     216204                       # Number of read requests accepted
system.mem_ctrls3.writeReqs                     59976                       # Number of write requests accepted
system.mem_ctrls3.readBursts                   216204                       # Number of DRAM read bursts, including those serviced by the write queue
system.mem_ctrls3.writeBursts                   59976                       # Number of DRAM write bursts, including those merged in the write queue
system.mem_ctrls3.bytesReadDRAM              13836352                       # Total number of bytes read from DRAM
system.mem_ctrls3.bytesReadWrQ                    704                       # Total number of bytes read from write queue
system.mem_ctrls3.bytesWritten                3838400                       # Total number of bytes written to DRAM
system.mem_ctrls3.bytesReadSys               13837056                       # Total read bytes from the system interface side
system.mem_ctrls3.bytesWrittenSys             3838464                       # Total written bytes from the system interface side
system.mem_ctrls3.servicedByWrQ                    11                       # Number of DRAM read bursts serviced by the write queue
system.mem_ctrls3.mergedWrBursts                    0                       # Number of DRAM write bursts merged with an existing one
system.mem_ctrls3.neitherReadNorWriteReqs            0                       # Number of requests that are neither read nor write
system.mem_ctrls3.perBankRdBursts::0            13270                       # Per bank write bursts
system.mem_ctrls3.perBankRdBursts::1            13822                       # Per bank write bursts
system.mem_ctrls3.perBankRdBursts::2            13450                       # Per bank write bursts
system.mem_ctrls3.perBankRdBursts::3            13898                       # Per bank write bursts
system.mem_ctrls3.perBankRdBursts::4            13490                       # Per bank write bursts
system.mem_ctrls3.perBankRdBursts::5            14085                       # Per bank write bursts
system.mem_ctrls3.perBankRdBursts::6            13512                       # Per bank write bursts
system.mem_ctrls3.perBankRdBursts::7            13491                       # Per bank write bursts
system.mem_ctrls3.perBankRdBursts::8            13398                       # Per bank write bursts
system.mem_ctrls3.perBankRdBursts::9            13703                       # Per bank write bursts
system.mem_ctrls3.perBankRdBursts::10           13441                       # Per bank write bursts
system.mem_ctrls3.perBankRdBursts::11           13659                       # Per bank write bursts
system.mem_ctrls3.perBankRdBursts::12           13200                       # Per bank write bursts
system.mem_ctrls3.perBankRdBursts::13           13061                       # Per bank write bursts
system.mem_ctrls3.perBankRdBursts::14           13312                       # Per bank write bursts
system.mem_ctrls3.perBankRdBursts::15           13401                       # Per bank write bursts
system.mem_ctrls3.perBankWrBursts::0             3686                       # Per bank write bursts
system.mem_ctrls3.perBankWrBursts::1             3769                       # Per bank write bursts
system.mem_ctrls3.perBankWrBursts::2             3752                       # Per bank write bursts
system.mem_ctrls3.perBankWrBursts::3             3975                       # Per bank write bursts
system.mem_ctrls3.perBankWrBursts::4             3768                       # Per bank write bursts
system.mem_ctrls3.perBankWrBursts::5             3909                       # Per bank write bursts
system.mem_ctrls3.perBankWrBursts::6             3808                       # Per bank write bursts
system.mem_ctrls3.perBankWrBursts::7             3773                       # Per bank write bursts
system.mem_ctrls3.perBankWrBursts::8             3662                       # Per bank write bursts
system.mem_ctrls3.perBankWrBursts::9             3908                       # Per bank write bursts
system.mem_ctrls3.perBankWrBursts::10            3672                       # Per bank write bursts
system.mem_ctrls3.perBankWrBursts::11            3622                       # Per bank write bursts
system.mem_ctrls3.perBankWrBursts::12            3573                       # Per bank write bursts
system.mem_ctrls3.perBankWrBursts::13            3595                       # Per bank write bursts
system.mem_ctrls3.perBankWrBursts::14            3795                       # Per bank write bursts
system.mem_ctrls3.perBankWrBursts::15            3708                       # Per bank write bursts
system.mem_ctrls3.numRdRetry                      852                       # Number of times read queue was full causing retry
system.mem_ctrls3.numWrRetry                      313                       # Number of times write queue was full causing retry
system.mem_ctrls3.totGap                  59770654500                       # Total gap between requests
system.mem_ctrls3.readPktSize::0                    0                       # Read request sizes (log2)
system.mem_ctrls3.readPktSize::1                    0                       # Read request sizes (log2)
system.mem_ctrls3.readPktSize::2                    0                       # Read request sizes (log2)
system.mem_ctrls3.readPktSize::3                    0                       # Read request sizes (log2)
[...]
system.ruby.L2Cache_Controller.IM.Mem_Data::total       190205                      
system.ruby.L2Cache_Controller.SS_MB.Exclusive_Unblock |         210     81.08%     81.08% |           6      2.32%     83.40% |           3      1.16%     84.56% |           6      2.32%     86.87% |           0      0.00%     86.87% |           1      0.39%     87.26% |           1      0.39%     87.64% |           0      0.00%     87.64% |           0      0.00%     87.64% |           1      0.39%     88.03% |           0      0.00%     88.03% |           0      0.00%     88.03% |           5      1.93%     89.96% |           0      0.00%     89.96% |           2      0.77%     90.73% |           1      0.39%     91.12% |           0      0.00%     91.12% |           0      0.00%     91.12% |          10      3.86%     94.98% |           2      0.77%     95.75% |           0      0.00%     95.75% |           0      0.00%     95.75% |           0      0.00%     95.75% |           0      0.00%     95.75% |           1      0.39%     96.14% |           0      0.00%     96.14% |           2      0.77%     96.91% |           1      0.39%     97.30% |           4      1.54%     98.84% |           1      0.39%     99.23% |           1      0.39%     99.61% |           1      0.39%    100.00%
system.ruby.L2Cache_Controller.SS_MB.Exclusive_Unblock::total          259                      
system.ruby.L2Cache_Controller.MT_MB.L1_GETS |           0      0.00%      0.00% |           0      0.00%      0.00% |           0      0.00%      0.00% |           0      0.00%      0.00% |           0      0.00%      0.00% |           0      0.00%      0.00% |           0      0.00%      0.00% |           0      0.00%      0.00% |           0      0.00%      0.00% |           0      0.00%      0.00% |           0      0.00%      0.00% |           0      0.00%      0.00% |           0      0.00%      0.00% |           0      0.00%      0.00% |           0      0.00%      0.00% |           0      0.00%      0.00% |           0      0.00%      0.00% |           3     50.00%     50.00% |           3     50.00%    100.00% |           0      0.00%    100.00% |           0      0.00%    100.00% |           0      0.00%    100.00% |           0      0.00%    100.00% |           0      0.00%    100.00% |           0      0.00%    100.00% |           0      0.00%    100.00% |           0      0.00%    100.00% |           0      0.00%    100.00% |           0      0.00%    100.00% |           0      0.00%    100.00% |           0      0.00%    100.00% |           0      0.00%    100.00%
system.ruby.L2Cache_Controller.MT_MB.L1_GETS::total            6                      
system.ruby.L2Cache_Controller.MT_MB.Exclusive_Unblock |       77663      7.09%      7.09% |       33388      3.05%     10.14% |       32686      2.99%     13.13% |       32854      3.00%     16.13% |       33108      3.02%     19.15% |       32033      2.93%     22.08% |       31957      2.92%     24.99% |       31675      2.89%     27.89% |       33953      3.10%     30.99% |       32356      2.95%     33.94% |       34304      3.13%     37.08% |       33125      3.03%     40.10% |       32695      2.99%     43.09% |       31745      2.90%     45.99% |       31778      2.90%     48.89% |       31669      2.89%     51.78% |       34274      3.13%     54.91% |       32115      2.93%     57.84% |       32966      3.01%     60.85% |       32542      2.97%     63.82% |       33034      3.02%     66.84% |       32476      2.97%     69.81% |       33015      3.02%     72.82% |       32009      2.92%     75.75% |       33649      3.07%     78.82% |       32343      2.95%     81.77% |       32844      3.00%     84.77% |       31819      2.91%     87.68% |       33167      3.03%     90.71% |       31907      2.91%     93.62% |       34282      3.13%     96.75% |       35573      3.25%    100.00%
system.ruby.L2Cache_Controller.MT_MB.Exclusive_Unblock::total      1095004                      
system.ruby.L2Cache_Controller.MT_IIB.L1_GETS |           1      7.14%      7.14% |           4     28.57%     35.71% |           2     14.29%     50.00% |           0      0.00%     50.00% |           0      0.00%     50.00% |           0      0.00%     50.00% |           0      0.00%     50.00% |           0      0.00%     50.00% |           0      0.00%     50.00% |           0      0.00%     50.00% |           0      0.00%     50.00% |           0      0.00%     50.00% |           0      0.00%     50.00% |           0      0.00%     50.00% |           0      0.00%     50.00% |           0      0.00%     50.00% |           0      0.00%     50.00% |           2     14.29%     64.29% |           2     14.29%     78.57% |           3     21.43%    100.00% |           0      0.00%    100.00% |           0      0.00%    100.00% |           0      0.00%    100.00% |           0      0.00%    100.00% |           0      0.00%    100.00% |           0      0.00%    100.00% |           0      0.00%    100.00% |           0      0.00%    100.00% |           0      0.00%    100.00% |           0      0.00%    100.00% |           0      0.00%    100.00% |           0      0.00%    100.00%
system.ruby.L2Cache_Controller.MT_IIB.L1_GETS::total           14                      
system.ruby.L2Cache_Controller.MT_IIB.WB_Data |         176      7.61%      7.61% |          69      2.98%     10.59% |          67      2.90%     13.49% |          66      2.85%     16.34% |          69      2.98%     19.33% |          69      2.98%     22.31% |          69      2.98%     25.29% |          69      2.98%     28.27% |          69      2.98%     31.26% |          69      2.98%     34.24% |          68      2.94%     37.18% |          66      2.85%     40.03% |          73      3.16%     43.19% |          69      2.98%     46.17% |          69      2.98%     49.16% |          69      2.98%     52.14% |          69      2.98%     55.12% |          69      2.98%     58.11% |          70      3.03%     61.13% |          69      2.98%     64.12% |          69      2.98%     67.10% |          69      2.98%     70.08% |          71      3.07%     73.15% |          69      2.98%     76.13% |          69      2.98%     79.12% |          69      2.98%     82.10% |          69      2.98%     85.08% |          69      2.98%     88.07% |          69      2.98%     91.05% |          69      2.98%     94.03% |          69      2.98%     97.02% |          69      2.98%    100.00%
system.ruby.L2Cache_Controller.MT_IIB.WB_Data::total         2313                      
system.ruby.L2Cache_Controller.MT_IIB.WB_Data_clean |         586     96.38%     96.38% |           4      0.66%     97.04% |           3      0.49%     97.53% |           3      0.49%     98.03% |           0      0.00%     98.03% |           0      0.00%     98.03% |           0      0.00%     98.03% |           0      0.00%     98.03% |           0      0.00%     98.03% |           0      0.00%     98.03% |           0      0.00%     98.03% |           0      0.00%     98.03% |           0      0.00%     98.03% |           0      0.00%     98.03% |           1      0.16%     98.19% |           0      0.00%     98.19% |           1      0.16%     98.36% |           4      0.66%     99.01% |           4      0.66%     99.67% |           2      0.33%    100.00% |           0      0.00%    100.00% |           0      0.00%    100.00% |           0      0.00%    100.00% |           0      0.00%    100.00% |           0      0.00%    100.00% |           0      0.00%    100.00% |           0      0.00%    100.00% |           0      0.00%    100.00% |           0      0.00%    100.00% |           0      0.00%    100.00% |           0      0.00%    100.00% |           0      0.00%    100.00%
system.ruby.L2Cache_Controller.MT_IIB.WB_Data_clean::total          608                      
system.ruby.L2Cache_Controller.MT_IIB.Unblock |           2     11.11%     11.11% |           2     11.11%     22.22% |           2     11.11%     33.33% |           3     16.67%     50.00% |           0      0.00%     50.00% |           0      0.00%     50.00% |           0      0.00%     50.00% |           0      0.00%     50.00% |           0      0.00%     50.00% |           0      0.00%     50.00% |           1      5.56%     55.56% |           3     16.67%     72.22% |           0      0.00%     72.22% |           0      0.00%     72.22% |           0      0.00%     72.22% |           0      0.00%     72.22% |           0      0.00%     72.22% |           0      0.00%     72.22% |           0      0.00%     72.22% |           2     11.11%     83.33% |           0      0.00%     83.33% |           0      0.00%     83.33% |           0      0.00%     83.33% |           0      0.00%     83.33% |           0      0.00%     83.33% |           1      5.56%     88.89% |           0      0.00%     88.89% |           0      0.00%     88.89% |           2     11.11%    100.00% |           0      0.00%    100.00% |           0      0.00%    100.00% |           0      0.00%    100.00%
system.ruby.L2Cache_Controller.MT_IIB.Unblock::total           18                      
system.ruby.L2Cache_Controller.MT_IB.WB_Data |           1      6.25%      6.25% |           2     12.50%     18.75% |           2     12.50%     31.25% |           3     18.75%     50.00% |           0      0.00%     50.00% |           0      0.00%     50.00% |           0      0.00%     50.00% |           0      0.00%     50.00% |           0      0.00%     50.00% |           0      0.00%     50.00% |           1      6.25%     56.25% |           3     18.75%     75.00% |           0      0.00%     75.00% |           0      0.00%     75.00% |           0      0.00%     75.00% |           0      0.00%     75.00% |           0      0.00%     75.00% |           0      0.00%     75.00% |           0      0.00%     75.00% |           1      6.25%     81.25% |           0      0.00%     81.25% |           0      0.00%     81.25% |           0      0.00%     81.25% |           0      0.00%     81.25% |           0      0.00%     81.25% |           1      6.25%     87.50% |           0      0.00%     87.50% |           0      0.00%     87.50% |           2     12.50%    100.00% |           0      0.00%    100.00% |           0      0.00%    100.00% |           0      0.00%    100.00%
system.ruby.L2Cache_Controller.MT_IB.WB_Data::total           16                      
system.ruby.L2Cache_Controller.MT_IB.WB_Data_clean |           1     50.00%     50.00% |           0      0.00%     50.00% |           0      0.00%     50.00% |           0      0.00%     50.00% |           0      0.00%     50.00% |           0      0.00%     50.00% |           0      0.00%     50.00% |           0      0.00%     50.00% |           0      0.00%     50.00% |           0      0.00%     50.00% |           0      0.00%     50.00% |           0      0.00%     50.00% |           0      0.00%     50.00% |           0      0.00%     50.00% |           0      0.00%     50.00% |           0      0.00%     50.00% |           0      0.00%     50.00% |           0      0.00%     50.00% |           0      0.00%     50.00% |           1     50.00%    100.00% |           0      0.00%    100.00% |           0      0.00%    100.00% |           0      0.00%    100.00% |           0      0.00%    100.00% |           0      0.00%    100.00% |           0      0.00%    100.00% |           0      0.00%    100.00% |           0      0.00%    100.00% |           0      0.00%    100.00% |           0      0.00%    100.00% |           0      0.00%    100.00% |           0      0.00%    100.00%
system.ruby.L2Cache_Controller.MT_IB.WB_Data_clean::total            2                      
system.ruby.L2Cache_Controller.MT_SB.L1_GETS |           0      0.00%      0.00% |           1     50.00%     50.00% |           1     50.00%    100.00% |           0      0.00%    100.00% |           0      0.00%    100.00% |           0      0.00%    100.00% |           0      0.00%    100.00% |           0      0.00%    100.00% |           0      0.00%    100.00% |           0      0.00%    100.00% |           0      0.00%    100.00% |           0      0.00%    100.00% |           0      0.00%    100.00% |           0      0.00%    100.00% |           0      0.00%    100.00% |           0      0.00%    100.00% |           0      0.00%    100.00% |           0      0.00%    100.00% |           0      0.00%    100.00% |           0      0.00%    100.00% |           0      0.00%    100.00% |           0      0.00%    100.00% |           0      0.00%    100.00% |           0      0.00%    100.00% |           0      0.00%    100.00% |           0      0.00%    100.00% |           0      0.00%    100.00% |           0      0.00%    100.00% |           0      0.00%    100.00% |           0      0.00%    100.00% |           0      0.00%    100.00% |           0      0.00%    100.00%
system.ruby.L2Cache_Controller.MT_SB.L1_GETS::total            2                      
system.ruby.L2Cache_Controller.MT_SB.Unblock |         762     26.09%     26.09% |          73      2.50%     28.59% |          70      2.40%     30.98% |          69      2.36%     33.34% |          69      2.36%     35.71% |          69      2.36%     38.07% |          69      2.36%     40.43% |          69      2.36%     42.79% |          69      2.36%     45.16% |          69      2.36%     47.52% |          68      2.33%     49.85% |          66      2.26%     52.11% |          73      2.50%     54.60% |          69      2.36%     56.97% |          70      2.40%     59.36% |          69      2.36%     61.73% |          70      2.40%     64.12% |          73      2.50%     66.62% |          74      2.53%     69.15% |          71      2.43%     71.59% |          69      2.36%     73.95% |          69      2.36%     76.31% |          71      2.43%     78.74% |          69      2.36%     81.10% |          69      2.36%     83.46% |          69      2.36%     85.83% |          69      2.36%     88.19% |          69      2.36%     90.55% |          69      2.36%     92.91% |          69      2.36%     95.28% |          69      2.36%     97.64% |          69      2.36%    100.00%
system.ruby.L2Cache_Controller.MT_SB.Unblock::total         2921                      
system.ruby.SimicsNetworkPortInterface_Controller.MessageSend |       76185      4.28%      4.28% |      890847     50.00%     54.28% |      107733      6.05%     60.32% |      103652      5.82%     66.14% |      101120      5.68%     71.82% |      102690      5.76%     77.58% |      101369      5.69%     83.27% |      103171      5.79%     89.06% |       97248      5.46%     94.52% |       97679      5.48%    100.00% |           0      0.00%    100.00% |           0      0.00%    100.00% |           0      0.00%    100.00% |           0      0.00%    100.00% |           0      0.00%    100.00% |           0      0.00%    100.00% |           0      0.00%    100.00% |           0      0.00%    100.00% |           0      0.00%    100.00% |           0      0.00%    100.00% |           0      0.00%    100.00% |           0      0.00%    100.00% |           0      0.00%    100.00% |           0      0.00%    100.00% |           0      0.00%    100.00% |           0      0.00%    100.00% |           0      0.00%    100.00% |           0      0.00%    100.00% |           0      0.00%    100.00% |           0      0.00%    100.00% |           0      0.00%    100.00% |           0      0.00%    100.00%
system.ruby.SimicsNetworkPortInterface_Controller.MessageSend::total      1781694                      
system.ruby.SimicsNetworkPortInterface_Controller.MessageRecv |       76185      4.28%      4.28% |      890847     50.00%     54.28% |      107733      6.05%     60.32% |      103652      5.82%     66.14% |      101120      5.68%     71.82% |      102690      5.76%     77.58% |      101369      5.69%     83.27% |      103171      5.79%     89.06% |       97248      5.46%     94.52% |       97679      5.48%    100.00% |           0      0.00%    100.00% |           0      0.00%    100.00% |           0      0.00%    100.00% |           0      0.00%    100.00% |           0      0.00%    100.00% |           0      0.00%    100.00% |           0      0.00%    100.00% |           0      0.00%    100.00% |           0      0.00%    100.00% |           0      0.00%    100.00% |           0      0.00%    100.00% |           0      0.00%    100.00% |           0      0.00%    100.00% |           0      0.00%    100.00% |           0      0.00%    100.00% |           0      0.00%    100.00% |           0      0.00%    100.00% |           0      0.00%    100.00% |           0      0.00%    100.00% |           0      0.00%    100.00% |           0      0.00%    100.00% |           0      0.00%    100.00%
system.ruby.SimicsNetworkPortInterface_Controller.MessageRecv::total      1781694                      
system.ruby.SimicsNetworkPortInterface_Controller.A.MessageSend |       76185      4.28%      4.28% |      890847     50.00%     54.28% |      107733      6.05%     60.32% |      103652      5.82%     66.14% |      101120      5.68%     71.82% |      102690      5.76%     77.58% |      101369      5.69%     83.27% |      103171      5.79%     89.06% |       97248      5.46%     94.52% |       97679      5.48%    100.00% |           0      0.00%    100.00% |           0      0.00%    100.00% |           0      0.00%    100.00% |           0      0.00%    100.00% |           0      0.00%    100.00% |           0      0.00%    100.00% |           0      0.00%    100.00% |           0      0.00%    100.00% |           0      0.00%    100.00% |           0      0.00%    100.00% |           0      0.00%    100.00% |           0      0.00%    100.00% |           0      0.00%    100.00% |           0      0.00%    100.00% |           0      0.00%    100.00% |           0      0.00%    100.00% |           0      0.00%    100.00% |           0      0.00%    100.00% |           0      0.00%    100.00% |           0      0.00%    100.00% |           0      0.00%    100.00% |           0      0.00%    100.00%
system.ruby.SimicsNetworkPortInterface_Controller.A.MessageSend::total      1781694                      
system.ruby.SimicsNetworkPortInterface_Controller.A.MessageRecv |       76185      4.28%      4.28% |      890847     50.00%     54.28% |      107733      6.05%     60.32% |      103652      5.82%     66.14% |      101120      5.68%     71.82% |      102690      5.76%     77.58% |      101369      5.69%     83.27% |      103171      5.79%     89.06% |       97248      5.46%     94.52% |       97679      5.48%    100.00% |           0      0.00%    100.00% |           0      0.00%    100.00% |           0      0.00%    100.00% |           0      0.00%    100.00% |           0      0.00%    100.00% |           0      0.00%    100.00% |           0      0.00%    100.00% |           0      0.00%    100.00% |           0      0.00%    100.00% |           0      0.00%    100.00% |           0      0.00%    100.00% |           0      0.00%    100.00% |           0      0.00%    100.00% |           0      0.00%    100.00% |           0      0.00%    100.00% |           0      0.00%    100.00% |           0      0.00%    100.00% |           0      0.00%    100.00% |           0      0.00%    100.00% |           0      0.00%    100.00% |           0      0.00%    100.00% |           0      0.00%    100.00%
system.ruby.SimicsNetworkPortInterface_Controller.A.MessageRecv::total      1781694                      
system.switch_cpus.kern.inst.arm                    0                       # number of arm instructions executed
system.switch_cpus.kern.inst.quiesce                0                       # number of quiesce instructions executed

---------- End Simulation Statistics   ----------
