
---------- Begin Simulation Statistics ----------
sim_seconds                                  0.093241                       # Number of seconds simulated
sim_ticks                                 93241447000                       # Number of ticks simulated
final_tick                               5269409525500                       # Number of ticks from beginning of simulation (restored from checkpoints and never reset)
sim_freq                                 1000000000000                       # Frequency of simulated ticks
host_inst_rate                                  24523                       # Simulator instruction rate (inst/s)
host_op_rate                                    43268                       # Simulator op (including micro ops) rate (op/s)
host_tick_rate                               53819903                       # Simulator tick rate (ticks/s)
host_mem_usage                                5940704                       # Number of bytes of host memory used
host_seconds                                  1732.47                       # Real time elapsed on the host
sim_insts                                    42484908                       # Number of instructions simulated
sim_ops                                      74960711                       # Number of ops (including micro ops) simulated
system.voltage_domain.voltage                       1                       # Voltage in Volts
system.clk_domain.clock                           500                       # Clock period in ticks
system.mem_ctrls0.bytes_read::ruby.dir_cntrl0     21126272                       # Number of bytes read from this memory
system.mem_ctrls0.bytes_read::total          21126272                       # Number of bytes read from this memory
system.mem_ctrls0.bytes_written::ruby.dir_cntrl0     11912576                       # Number of bytes written to this memory
system.mem_ctrls0.bytes_written::total       11912576                       # Number of bytes written to this memory
system.mem_ctrls0.num_reads::ruby.dir_cntrl0       330098                       # Number of read requests responded to by this memory
system.mem_ctrls0.num_reads::total             330098                       # Number of read requests responded to by this memory
system.mem_ctrls0.num_writes::ruby.dir_cntrl0       186134                       # Number of write requests responded to by this memory
system.mem_ctrls0.num_writes::total            186134                       # Number of write requests responded to by this memory
system.mem_ctrls0.bw_read::ruby.dir_cntrl0    226575978                       # Total read bandwidth from this memory (bytes/s)
system.mem_ctrls0.bw_read::total            226575978                       # Total read bandwidth from this memory (bytes/s)
system.mem_ctrls0.bw_write::ruby.dir_cntrl0    127760523                       # Write bandwidth from this memory (bytes/s)
system.mem_ctrls0.bw_write::total           127760523                       # Write bandwidth from this memory (bytes/s)
system.mem_ctrls0.bw_total::ruby.dir_cntrl0    354336500                       # Total bandwidth to/from this memory (bytes/s)
system.mem_ctrls0.bw_total::total           354336500                       # Total bandwidth to/from this memory (bytes/s)
system.mem_ctrls0.readReqs                     330098                       # Number of read requests accepted
system.mem_ctrls0.writeReqs                    186134                       # Number of write requests accepted
system.mem_ctrls0.readBursts                   330098                       # Number of DRAM read bursts, including those serviced by the write queue
system.mem_ctrls0.writeBursts                  186134                       # Number of DRAM write bursts, including those merged in the write queue
system.mem_ctrls0.bytesReadDRAM              21123840                       # Total number of bytes read from DRAM
system.mem_ctrls0.bytesReadWrQ                   2432                       # Total number of bytes read from write queue
system.mem_ctrls0.bytesWritten               11912448                       # Total number of bytes written to DRAM
system.mem_ctrls0.bytesReadSys               21126272                       # Total read bytes from the system interface side
system.mem_ctrls0.bytesWrittenSys            11912576                       # Total written bytes from the system interface side
system.mem_ctrls0.servicedByWrQ                    38                       # Number of DRAM read bursts serviced by the write queue
system.mem_ctrls0.mergedWrBursts                    0                       # Number of DRAM write bursts merged with an existing one
system.mem_ctrls0.neitherReadNorWriteReqs            0                       # Number of requests that are neither read nor write
system.mem_ctrls0.perBankRdBursts::0            20311                       # Per bank write bursts
system.mem_ctrls0.perBankRdBursts::1            21023                       # Per bank write bursts
system.mem_ctrls0.perBankRdBursts::2            20509                       # Per bank write bursts
system.mem_ctrls0.perBankRdBursts::3            20890                       # Per bank write bursts
system.mem_ctrls0.perBankRdBursts::4            20515                       # Per bank write bursts
system.mem_ctrls0.perBankRdBursts::5            21075                       # Per bank write bursts
system.mem_ctrls0.perBankRdBursts::6            20640                       # Per bank write bursts
system.mem_ctrls0.perBankRdBursts::7            20715                       # Per bank write bursts
system.mem_ctrls0.perBankRdBursts::8            20676                       # Per bank write bursts
system.mem_ctrls0.perBankRdBursts::9            20882                       # Per bank write bursts
system.mem_ctrls0.perBankRdBursts::10           20612                       # Per bank write bursts
system.mem_ctrls0.perBankRdBursts::11           20950                       # Per bank write bursts
system.mem_ctrls0.perBankRdBursts::12           20252                       # Per bank write bursts
system.mem_ctrls0.perBankRdBursts::13           20152                       # Per bank write bursts
system.mem_ctrls0.perBankRdBursts::14           20462                       # Per bank write bursts
system.mem_ctrls0.perBankRdBursts::15           20396                       # Per bank write bursts
system.mem_ctrls0.perBankWrBursts::0            11508                       # Per bank write bursts
system.mem_ctrls0.perBankWrBursts::1            11662                       # Per bank write bursts
system.mem_ctrls0.perBankWrBursts::2            11663                       # Per bank write bursts
system.mem_ctrls0.perBankWrBursts::3            11649                       # Per bank write bursts
system.mem_ctrls0.perBankWrBursts::4            11607                       # Per bank write bursts
system.mem_ctrls0.perBankWrBursts::5            11925                       # Per bank write bursts
system.mem_ctrls0.perBankWrBursts::6            11563                       # Per bank write bursts
system.mem_ctrls0.perBankWrBursts::7            11683                       # Per bank write bursts
system.mem_ctrls0.perBankWrBursts::8            11899                       # Per bank write bursts
system.mem_ctrls0.perBankWrBursts::9            11721                       # Per bank write bursts
system.mem_ctrls0.perBankWrBursts::10           11533                       # Per bank write bursts
system.mem_ctrls0.perBankWrBursts::11           11707                       # Per bank write bursts
system.mem_ctrls0.perBankWrBursts::12           11345                       # Per bank write bursts
system.mem_ctrls0.perBankWrBursts::13           11317                       # Per bank write bursts
system.mem_ctrls0.perBankWrBursts::14           11753                       # Per bank write bursts
system.mem_ctrls0.perBankWrBursts::15           11597                       # Per bank write bursts
system.mem_ctrls0.numRdRetry                     2973                       # Number of times read queue was full causing retry
system.mem_ctrls0.numWrRetry                     1902                       # Number of times write queue was full causing retry
system.mem_ctrls0.totGap                  93240884000                       # Total gap between requests
system.mem_ctrls0.readPktSize::0                    0                       # Read request sizes (log2)
system.mem_ctrls0.readPktSize::1                    0                       # Read request sizes (log2)
system.mem_ctrls0.readPktSize::2                    0                       # Read request sizes (log2)
system.mem_ctrls0.readPktSize::3                    0                       # Read request sizes (log2)
system.mem_ctrls0.readPktSize::4                    0                       # Read request sizes (log2)
system.mem_ctrls0.readPktSize::5                    0                       # Read request sizes (log2)
system.mem_ctrls0.readPktSize::6               330098                       # Read request sizes (log2)
system.mem_ctrls0.writePktSize::0                   0                       # Write request sizes (log2)
system.mem_ctrls0.writePktSize::1                   0                       # Write request sizes (log2)
system.mem_ctrls0.writePktSize::2                   0                       # Write request sizes (log2)
system.mem_ctrls0.writePktSize::3                   0                       # Write request sizes (log2)
system.mem_ctrls0.writePktSize::4                   0                       # Write request sizes (log2)
system.mem_ctrls0.writePktSize::5                   0                       # Write request sizes (log2)
system.mem_ctrls0.writePktSize::6              186134                       # Write request sizes (log2)
system.mem_ctrls0.rdQLenPdf::0                 158097                       # What read queue length does an incoming req see
system.mem_ctrls0.rdQLenPdf::1                  40604                       # What read queue length does an incoming req see
system.mem_ctrls0.rdQLenPdf::2                  30776                       # What read queue length does an incoming req see
system.mem_ctrls0.rdQLenPdf::3                  22084                       # What read queue length does an incoming req see
system.mem_ctrls0.rdQLenPdf::4                  16161                       # What read queue length does an incoming req see
system.mem_ctrls0.rdQLenPdf::5                  12239                       # What read queue length does an incoming req see
system.mem_ctrls0.rdQLenPdf::6                   9529                       # What read queue length does an incoming req see
system.mem_ctrls0.rdQLenPdf::7                   7407                       # What read queue length does an incoming req see
system.mem_ctrls0.rdQLenPdf::8                   5697                       # What read queue length does an incoming req see
system.mem_ctrls0.rdQLenPdf::9                   4472                       # What read queue length does an incoming req see
system.mem_ctrls0.rdQLenPdf::10                  3531                       # What read queue length does an incoming req see
system.mem_ctrls0.rdQLenPdf::11                  2794                       # What read queue length does an incoming req see
system.mem_ctrls0.rdQLenPdf::12                  2254                       # What read queue length does an incoming req see
system.mem_ctrls0.rdQLenPdf::13                  1835                       # What read queue length does an incoming req see
system.mem_ctrls0.rdQLenPdf::14                  1423                       # What read queue length does an incoming req see
system.mem_ctrls0.rdQLenPdf::15                  1168                       # What read queue length does an incoming req see
system.mem_ctrls0.rdQLenPdf::16                  1023                       # What read queue length does an incoming req see
system.mem_ctrls0.rdQLenPdf::17                   829                       # What read queue length does an incoming req see
system.mem_ctrls0.rdQLenPdf::18                   714                       # What read queue length does an incoming req see
system.mem_ctrls0.rdQLenPdf::19                   630                       # What read queue length does an incoming req see
system.mem_ctrls0.rdQLenPdf::20                   577                       # What read queue length does an incoming req see
system.mem_ctrls0.rdQLenPdf::21                   484                       # What read queue length does an incoming req see
system.mem_ctrls0.rdQLenPdf::22                   418                       # What read queue length does an incoming req see
system.mem_ctrls0.rdQLenPdf::23                   337                       # What read queue length does an incoming req see
system.mem_ctrls0.rdQLenPdf::24                   300                       # What read queue length does an incoming req see
system.mem_ctrls0.rdQLenPdf::25                   255                       # What read queue length does an incoming req see
system.mem_ctrls0.rdQLenPdf::26                   217                       # What read queue length does an incoming req see
system.mem_ctrls0.rdQLenPdf::27                   209                       # What read queue length does an incoming req see
system.mem_ctrls0.rdQLenPdf::28                   199                       # What read queue length does an incoming req see
system.mem_ctrls0.rdQLenPdf::29                   210                       # What read queue length does an incoming req see
system.mem_ctrls0.rdQLenPdf::30                   233                       # What read queue length does an incoming req see
system.mem_ctrls0.rdQLenPdf::31                  3354                       # What read queue length does an incoming req see
system.mem_ctrls0.wrQLenPdf::0                  33413                       # What write queue length does an incoming req see
system.mem_ctrls0.wrQLenPdf::1                  35909                       # What write queue length does an incoming req see
system.mem_ctrls0.wrQLenPdf::2                  36334                       # What write queue length does an incoming req see
system.mem_ctrls0.wrQLenPdf::3                  36096                       # What write queue length does an incoming req see
system.mem_ctrls0.wrQLenPdf::4                  35650                       # What write queue length does an incoming req see
system.mem_ctrls0.wrQLenPdf::5                   3168                       # What write queue length does an incoming req see
system.mem_ctrls0.wrQLenPdf::6                   2163                       # What write queue length does an incoming req see
system.mem_ctrls0.wrQLenPdf::7                   3401                       # What write queue length does an incoming req see
system.mem_ctrls0.bytesPerActivate::samples       155270                       # Bytes accessed per row activation
system.mem_ctrls0.bytesPerActivate::mean   212.765892                       # Bytes accessed per row activation
system.mem_ctrls0.bytesPerActivate::gmean   159.439077                       # Bytes accessed per row activation
system.mem_ctrls0.bytesPerActivate::stdev   177.358837                       # Bytes accessed per row activation
system.mem_ctrls0.bytesPerActivate::0-127        49527     31.90%     31.90% # Bytes accessed per row activation
system.mem_ctrls0.bytesPerActivate::128-255        45870     29.54%     61.44% # Bytes accessed per row activation
system.mem_ctrls0.bytesPerActivate::256-383        43039     27.72%     89.16% # Bytes accessed per row activation
system.mem_ctrls0.bytesPerActivate::384-511         6754      4.35%     93.51% # Bytes accessed per row activation
system.mem_ctrls0.bytesPerActivate::512-639         3879      2.50%     96.01% # Bytes accessed per row activation
system.mem_ctrls0.bytesPerActivate::640-767         2061      1.33%     97.33% # Bytes accessed per row activation
system.mem_ctrls0.bytesPerActivate::768-895         1389      0.89%     98.23% # Bytes accessed per row activation
system.mem_ctrls0.bytesPerActivate::896-1023          930      0.60%     98.83% # Bytes accessed per row activation
system.mem_ctrls0.bytesPerActivate::1024-1151         1821      1.17%    100.00% # Bytes accessed per row activation
system.mem_ctrls0.bytesPerActivate::total       155270                       # Bytes accessed per row activation
system.mem_ctrls0.rdPerTurnAround::samples        33656                       # Reads before turning the bus around for writes
system.mem_ctrls0.rdPerTurnAround::mean      9.806751                       # Reads before turning the bus around for writes
system.mem_ctrls0.rdPerTurnAround::stdev    23.728241                       # Reads before turning the bus around for writes
system.mem_ctrls0.rdPerTurnAround::0-127        33649     99.98%     99.98% # Reads before turning the bus around for writes
system.mem_ctrls0.rdPerTurnAround::128-255            6      0.02%    100.00% # Reads before turning the bus around for writes
system.mem_ctrls0.rdPerTurnAround::3968-4095            1      0.00%    100.00% # Reads before turning the bus around for writes
system.mem_ctrls0.rdPerTurnAround::total        33656                       # Reads before turning the bus around for writes
system.mem_ctrls0.wrPerTurnAround::samples        33656                       # Writes before turning the bus around for reads
system.mem_ctrls0.wrPerTurnAround::mean      5.530425                       # Writes before turning the bus around for reads
system.mem_ctrls0.wrPerTurnAround::gmean     5.392368                       # Writes before turning the bus around for reads
system.mem_ctrls0.wrPerTurnAround::stdev     1.606450                       # Writes before turning the bus around for reads
system.mem_ctrls0.wrPerTurnAround::4-7          31406     93.31%     93.31% # Writes before turning the bus around for reads
system.mem_ctrls0.wrPerTurnAround::8-11          1597      4.75%     98.06% # Writes before turning the bus around for reads
system.mem_ctrls0.wrPerTurnAround::12-15          331      0.98%     99.04% # Writes before turning the bus around for reads
system.mem_ctrls0.wrPerTurnAround::16-19          322      0.96%    100.00% # Writes before turning the bus around for reads
system.mem_ctrls0.wrPerTurnAround::total        33656                       # Writes before turning the bus around for reads
system.mem_ctrls0.totQLat                 12640622147                       # Total ticks spent queuing
system.mem_ctrls0.totMemAccLat            18829247147                       # Total ticks spent from burst creation until serviced by the DRAM
system.mem_ctrls0.totBusLat                1650300000                       # Total ticks spent in databus transfers
system.mem_ctrls0.avgQLat                    38297.95                       # Average queueing delay per DRAM burst
system.mem_ctrls0.avgBusLat                   5000.00                       # Average bus latency per DRAM burst
system.mem_ctrls0.avgMemAccLat               57047.95                       # Average memory access latency per DRAM burst
system.mem_ctrls0.avgRdBW                      226.55                       # Average DRAM read bandwidth in MiByte/s
system.mem_ctrls0.avgWrBW                      127.76                       # Average achieved write bandwidth in MiByte/s
system.mem_ctrls0.avgRdBWSys                   226.58                       # Average system read bandwidth in MiByte/s
system.mem_ctrls0.avgWrBWSys                   127.76                       # Average system write bandwidth in MiByte/s
system.mem_ctrls0.peakBW                     12800.00                       # Theoretical peak bandwidth in MiByte/s
system.mem_ctrls0.busUtil                        2.77                       # Data bus utilization in percentage
system.mem_ctrls0.busUtilRead                    1.77                       # Data bus utilization in percentage for reads
system.mem_ctrls0.busUtilWrite                   1.00                       # Data bus utilization in percentage for writes
system.mem_ctrls0.avgRdQLen                      1.20                       # Average read queue length when enqueuing
system.mem_ctrls0.avgWrQLen                      2.96                       # Average write queue length when enqueuing
system.mem_ctrls0.readRowHits                  248778                       # Number of row buffer hits during reads
system.mem_ctrls0.writeRowHits                 112143                       # Number of row buffer hits during writes
system.mem_ctrls0.readRowHitRate                75.37                       # Row buffer hit rate for reads
system.mem_ctrls0.writeRowHitRate               60.25                       # Row buffer hit rate for writes
system.mem_ctrls0.avgGap                    180618.18                       # Average gap between requests
system.mem_ctrls0.pageHitRate                   69.92                       # Row buffer hit rate, read and write combined
system.mem_ctrls0.memoryStateTime::IDLE   15199652000                       # Time in different power states
system.mem_ctrls0.memoryStateTime::REF     3113500000                       # Time in different power states
system.mem_ctrls0.memoryStateTime::PRE_PDN            0                       # Time in different power states
system.mem_ctrls0.memoryStateTime::ACT    74927671500                       # Time in different power states
system.mem_ctrls0.memoryStateTime::ACT_PDN            0                       # Time in different power states
system.mem_ctrls0.actEnergy::0              591842160                       # Energy for activate commands per rank (pJ)
system.mem_ctrls0.actEnergy::1              581999040                       # Energy for activate commands per rank (pJ)
system.mem_ctrls0.preEnergy::0              322929750                       # Energy for precharge commands per rank (pJ)
system.mem_ctrls0.preEnergy::1              317559000                       # Energy for precharge commands per rank (pJ)
system.mem_ctrls0.readEnergy::0            1292288400                       # Energy for read commands per rank (pJ)
system.mem_ctrls0.readEnergy::1            1282164000                       # Energy for read commands per rank (pJ)
system.mem_ctrls0.writeEnergy::0            604324800                       # Energy for write commands per rank (pJ)
system.mem_ctrls0.writeEnergy::1            601810560                       # Energy for write commands per rank (pJ)
system.mem_ctrls0.refreshEnergy::0         6090006000                       # Energy for refresh commands per rank (pJ)
system.mem_ctrls0.refreshEnergy::1         6090006000                       # Energy for refresh commands per rank (pJ)
system.mem_ctrls0.actBackEnergy::0        38823486030                       # Energy for active background per rank (pJ)
system.mem_ctrls0.actBackEnergy::1        38107262790                       # Energy for active background per rank (pJ)
system.mem_ctrls0.preBackEnergy::0        21888672750                       # Energy for precharge background per rank (pJ)
system.mem_ctrls0.preBackEnergy::1        22516938750                       # Energy for precharge background per rank (pJ)
system.mem_ctrls0.totalEnergy::0          69613549890                       # Total energy per rank (pJ)
system.mem_ctrls0.totalEnergy::1          69497740140                       # Total energy per rank (pJ)
system.mem_ctrls0.averagePower::0          746.601235                       # Core power per rank (mW)
system.mem_ctrls0.averagePower::1          745.359182                       # Core power per rank (mW)
system.mem_ctrls1.bytes_read::ruby.dir_cntrl1     20693440                       # Number of bytes read from this memory
system.mem_ctrls1.bytes_read::total          20693440                       # Number of bytes read from this memory
system.mem_ctrls1.bytes_written::ruby.dir_cntrl1     11493056                       # Number of bytes written to this memory
system.mem_ctrls1.bytes_written::total       11493056                       # Number of bytes written to this memory
system.mem_ctrls1.num_reads::ruby.dir_cntrl1       323335                       # Number of read requests responded to by this memory
system.mem_ctrls1.num_reads::total             323335                       # Number of read requests responded to by this memory
system.mem_ctrls1.num_writes::ruby.dir_cntrl1       179579                       # Number of write requests responded to by this memory
system.mem_ctrls1.num_writes::total            179579                       # Number of write requests responded to by this memory
system.mem_ctrls1.bw_read::ruby.dir_cntrl1    221933922                       # Total read bandwidth from this memory (bytes/s)
system.mem_ctrls1.bw_read::total            221933922                       # Total read bandwidth from this memory (bytes/s)
system.mem_ctrls1.bw_write::ruby.dir_cntrl1    123261236                       # Write bandwidth from this memory (bytes/s)
system.mem_ctrls1.bw_write::total           123261236                       # Write bandwidth from this memory (bytes/s)
system.mem_ctrls1.bw_total::ruby.dir_cntrl1    345195158                       # Total bandwidth to/from this memory (bytes/s)
system.mem_ctrls1.bw_total::total           345195158                       # Total bandwidth to/from this memory (bytes/s)
system.mem_ctrls1.readReqs                     323335                       # Number of read requests accepted
system.mem_ctrls1.writeReqs                    179579                       # Number of write requests accepted
system.mem_ctrls1.readBursts                   323335                       # Number of DRAM read bursts, including those serviced by the write queue
system.mem_ctrls1.writeBursts                  179579                       # Number of DRAM write bursts, including those merged in the write queue
system.mem_ctrls1.bytesReadDRAM              20691584                       # Total number of bytes read from DRAM
system.mem_ctrls1.bytesReadWrQ                   1856                       # Total number of bytes read from write queue
system.mem_ctrls1.bytesWritten               11492800                       # Total number of bytes written to DRAM
system.mem_ctrls1.bytesReadSys               20693440                       # Total read bytes from the system interface side
system.mem_ctrls1.bytesWrittenSys            11493056                       # Total written bytes from the system interface side
system.mem_ctrls1.servicedByWrQ                    29                       # Number of DRAM read bursts serviced by the write queue
system.mem_ctrls1.mergedWrBursts                    0                       # Number of DRAM write bursts merged with an existing one
system.mem_ctrls1.neitherReadNorWriteReqs            0                       # Number of requests that are neither read nor write
system.mem_ctrls1.perBankRdBursts::0            19941                       # Per bank write bursts
system.mem_ctrls1.perBankRdBursts::1            20552                       # Per bank write bursts
system.mem_ctrls1.perBankRdBursts::2            20081                       # Per bank write bursts
system.mem_ctrls1.perBankRdBursts::3            20450                       # Per bank write bursts
system.mem_ctrls1.perBankRdBursts::4            20135                       # Per bank write bursts
system.mem_ctrls1.perBankRdBursts::5            20621                       # Per bank write bursts
system.mem_ctrls1.perBankRdBursts::6            20217                       # Per bank write bursts
system.mem_ctrls1.perBankRdBursts::7            20393                       # Per bank write bursts
system.mem_ctrls1.perBankRdBursts::8            20262                       # Per bank write bursts
system.mem_ctrls1.perBankRdBursts::9            20429                       # Per bank write bursts
system.mem_ctrls1.perBankRdBursts::10           20191                       # Per bank write bursts
system.mem_ctrls1.perBankRdBursts::11           20519                       # Per bank write bursts
system.mem_ctrls1.perBankRdBursts::12           19837                       # Per bank write bursts
system.mem_ctrls1.perBankRdBursts::13           19720                       # Per bank write bursts
system.mem_ctrls1.perBankRdBursts::14           19942                       # Per bank write bursts
system.mem_ctrls1.perBankRdBursts::15           20016                       # Per bank write bursts
system.mem_ctrls1.perBankWrBursts::0            11108                       # Per bank write bursts
system.mem_ctrls1.perBankWrBursts::1            11260                       # Per bank write bursts
system.mem_ctrls1.perBankWrBursts::2            11270                       # Per bank write bursts
system.mem_ctrls1.perBankWrBursts::3            11246                       # Per bank write bursts
system.mem_ctrls1.perBankWrBursts::4            11215                       # Per bank write bursts
system.mem_ctrls1.perBankWrBursts::5            11520                       # Per bank write bursts
system.mem_ctrls1.perBankWrBursts::6            11141                       # Per bank write bursts
system.mem_ctrls1.perBankWrBursts::7            11265                       # Per bank write bursts
system.mem_ctrls1.perBankWrBursts::8            11484                       # Per bank write bursts
system.mem_ctrls1.perBankWrBursts::9            11306                       # Per bank write bursts
system.mem_ctrls1.perBankWrBursts::10           11125                       # Per bank write bursts
system.mem_ctrls1.perBankWrBursts::11           11291                       # Per bank write bursts
system.mem_ctrls1.perBankWrBursts::12           10951                       # Per bank write bursts
system.mem_ctrls1.perBankWrBursts::13           10914                       # Per bank write bursts
system.mem_ctrls1.perBankWrBursts::14           11294                       # Per bank write bursts
system.mem_ctrls1.perBankWrBursts::15           11185                       # Per bank write bursts
system.mem_ctrls1.numRdRetry                     2096                       # Number of times read queue was full causing retry
system.mem_ctrls1.numWrRetry                     1677                       # Number of times write queue was full causing retry
system.mem_ctrls1.totGap                  93240613000                       # Total gap between requests
system.mem_ctrls1.readPktSize::0                    0                       # Read request sizes (log2)
system.mem_ctrls1.readPktSize::1                    0                       # Read request sizes (log2)
system.mem_ctrls1.readPktSize::2                    0                       # Read request sizes (log2)
system.mem_ctrls1.readPktSize::3                    0                       # Read request sizes (log2)
system.mem_ctrls1.readPktSize::4                    0                       # Read request sizes (log2)
system.mem_ctrls1.readPktSize::5                    0                       # Read request sizes (log2)
system.mem_ctrls1.readPktSize::6               323335                       # Read request sizes (log2)
system.mem_ctrls1.writePktSize::0                   0                       # Write request sizes (log2)
system.mem_ctrls1.writePktSize::1                   0                       # Write request sizes (log2)
system.mem_ctrls1.writePktSize::2                   0                       # Write request sizes (log2)
system.mem_ctrls1.writePktSize::3                   0                       # Write request sizes (log2)
system.mem_ctrls1.writePktSize::4                   0                       # Write request sizes (log2)
system.mem_ctrls1.writePktSize::5                   0                       # Write request sizes (log2)
system.mem_ctrls1.writePktSize::6              179579                       # Write request sizes (log2)
system.mem_ctrls1.rdQLenPdf::0                 154936                       # What read queue length does an incoming req see
system.mem_ctrls1.rdQLenPdf::1                  38017                       # What read queue length does an incoming req see
system.mem_ctrls1.rdQLenPdf::2                  29336                       # What read queue length does an incoming req see
system.mem_ctrls1.rdQLenPdf::3                  21818                       # What read queue length does an incoming req see
system.mem_ctrls1.rdQLenPdf::4                  16316                       # What read queue length does an incoming req see
system.mem_ctrls1.rdQLenPdf::5                  12370                       # What read queue length does an incoming req see
system.mem_ctrls1.rdQLenPdf::6                   9667                       # What read queue length does an incoming req see
system.mem_ctrls1.rdQLenPdf::7                   7428                       # What read queue length does an incoming req see
system.mem_ctrls1.rdQLenPdf::8                   5849                       # What read queue length does an incoming req see
system.mem_ctrls1.rdQLenPdf::9                   4675                       # What read queue length does an incoming req see
system.mem_ctrls1.rdQLenPdf::10                  3644                       # What read queue length does an incoming req see
system.mem_ctrls1.rdQLenPdf::11                  2862                       # What read queue length does an incoming req see
system.mem_ctrls1.rdQLenPdf::12                  2382                       # What read queue length does an incoming req see
system.mem_ctrls1.rdQLenPdf::13                  1870                       # What read queue length does an incoming req see
system.mem_ctrls1.rdQLenPdf::14                  1622                       # What read queue length does an incoming req see
system.mem_ctrls1.rdQLenPdf::15                  1330                       # What read queue length does an incoming req see
system.mem_ctrls1.rdQLenPdf::16                  1022                       # What read queue length does an incoming req see
system.mem_ctrls1.rdQLenPdf::17                   848                       # What read queue length does an incoming req see
system.mem_ctrls1.rdQLenPdf::18                   685                       # What read queue length does an incoming req see
system.mem_ctrls1.rdQLenPdf::19                   599                       # What read queue length does an incoming req see
system.mem_ctrls1.rdQLenPdf::20                   512                       # What read queue length does an incoming req see
system.mem_ctrls1.rdQLenPdf::21                   471                       # What read queue length does an incoming req see
system.mem_ctrls1.rdQLenPdf::22                   437                       # What read queue length does an incoming req see
system.mem_ctrls1.rdQLenPdf::23                   386                       # What read queue length does an incoming req see
system.mem_ctrls1.rdQLenPdf::24                   337                       # What read queue length does an incoming req see
system.mem_ctrls1.rdQLenPdf::25                   286                       # What read queue length does an incoming req see
system.mem_ctrls1.rdQLenPdf::26                   270                       # What read queue length does an incoming req see
system.mem_ctrls1.rdQLenPdf::27                   241                       # What read queue length does an incoming req see
system.mem_ctrls1.rdQLenPdf::28                   231                       # What read queue length does an incoming req see
system.mem_ctrls1.rdQLenPdf::29                   207                       # What read queue length does an incoming req see
system.mem_ctrls1.rdQLenPdf::30                   214                       # What read queue length does an incoming req see
system.mem_ctrls1.rdQLenPdf::31                  2438                       # What read queue length does an incoming req see
system.mem_ctrls1.wrQLenPdf::0                  32215                       # What write queue length does an incoming req see
system.mem_ctrls1.wrQLenPdf::1                  34433                       # What write queue length does an incoming req see
system.mem_ctrls1.wrQLenPdf::2                  34957                       # What write queue length does an incoming req see
system.mem_ctrls1.wrQLenPdf::3                  34917                       # What write queue length does an incoming req see
system.mem_ctrls1.wrQLenPdf::4                  34437                       # What write queue length does an incoming req see
system.mem_ctrls1.wrQLenPdf::5                   3206                       # What write queue length does an incoming req see
system.mem_ctrls1.wrQLenPdf::6                   2281                       # What write queue length does an incoming req see
system.mem_ctrls1.wrQLenPdf::7                   3133                       # What write queue length does an incoming req see
system.mem_ctrls1.bytesPerActivate::samples       147075                       # Bytes accessed per row activation
system.mem_ctrls1.bytesPerActivate::mean   218.826694                       # Bytes accessed per row activation
system.mem_ctrls1.bytesPerActivate::gmean   163.715368                       # Bytes accessed per row activation
system.mem_ctrls1.bytesPerActivate::stdev   180.395765                       # Bytes accessed per row activation
system.mem_ctrls1.bytesPerActivate::0-127        45620     31.02%     31.02% # Bytes accessed per row activation
system.mem_ctrls1.bytesPerActivate::128-255        41536     28.24%     59.26% # Bytes accessed per row activation
system.mem_ctrls1.bytesPerActivate::256-383        42890     29.16%     88.42% # Bytes accessed per row activation
system.mem_ctrls1.bytesPerActivate::384-511         6755      4.59%     93.01% # Bytes accessed per row activation
system.mem_ctrls1.bytesPerActivate::512-639         4012      2.73%     95.74% # Bytes accessed per row activation
system.mem_ctrls1.bytesPerActivate::640-767         2143      1.46%     97.20% # Bytes accessed per row activation
system.mem_ctrls1.bytesPerActivate::768-895         1464      1.00%     98.19% # Bytes accessed per row activation
system.mem_ctrls1.bytesPerActivate::896-1023          874      0.59%     98.79% # Bytes accessed per row activation
system.mem_ctrls1.bytesPerActivate::1024-1151         1781      1.21%    100.00% # Bytes accessed per row activation
system.mem_ctrls1.bytesPerActivate::total       147075                       # Bytes accessed per row activation
system.mem_ctrls1.rdPerTurnAround::samples        32445                       # Reads before turning the bus around for writes
system.mem_ctrls1.rdPerTurnAround::mean      9.964062                       # Reads before turning the bus around for writes
system.mem_ctrls1.rdPerTurnAround::stdev    19.843828                       # Reads before turning the bus around for writes
system.mem_ctrls1.rdPerTurnAround::0-127        32439     99.98%     99.98% # Reads before turning the bus around for writes
system.mem_ctrls1.rdPerTurnAround::128-255            4      0.01%     99.99% # Reads before turning the bus around for writes
system.mem_ctrls1.rdPerTurnAround::1152-1279            1      0.00%    100.00% # Reads before turning the bus around for writes
system.mem_ctrls1.rdPerTurnAround::2816-2943            1      0.00%    100.00% # Reads before turning the bus around for writes
system.mem_ctrls1.rdPerTurnAround::total        32445                       # Reads before turning the bus around for writes
system.mem_ctrls1.wrPerTurnAround::samples        32445                       # Writes before turning the bus around for reads
system.mem_ctrls1.wrPerTurnAround::mean      5.534751                       # Writes before turning the bus around for reads
system.mem_ctrls1.wrPerTurnAround::gmean     5.394290                       # Writes before turning the bus around for reads
system.mem_ctrls1.wrPerTurnAround::stdev     1.612295                       # Writes before turning the bus around for reads
system.mem_ctrls1.wrPerTurnAround::4-7          30171     92.99%     92.99% # Writes before turning the bus around for reads
system.mem_ctrls1.wrPerTurnAround::8-11          1625      5.01%     98.00% # Writes before turning the bus around for reads
system.mem_ctrls1.wrPerTurnAround::12-15          364      1.12%     99.12% # Writes before turning the bus around for reads
system.mem_ctrls1.wrPerTurnAround::16-19          285      0.88%    100.00% # Writes before turning the bus around for reads
system.mem_ctrls1.wrPerTurnAround::total        32445                       # Writes before turning the bus around for reads
system.mem_ctrls1.totQLat                 12289718125                       # Total ticks spent queuing
system.mem_ctrls1.totMemAccLat            18351705625                       # Total ticks spent from burst creation until serviced by the DRAM
system.mem_ctrls1.totBusLat                1616530000                       # Total ticks spent in databus transfers
system.mem_ctrls1.avgQLat                    38012.65                       # Average queueing delay per DRAM burst
system.mem_ctrls1.avgBusLat                   5000.00                       # Average bus latency per DRAM burst
system.mem_ctrls1.avgMemAccLat               56762.65                       # Average memory access latency per DRAM burst
system.mem_ctrls1.avgRdBW                      221.91                       # Average DRAM read bandwidth in MiByte/s
system.mem_ctrls1.avgWrBW                      123.26                       # Average achieved write bandwidth in MiByte/s
system.mem_ctrls1.avgRdBWSys                   221.93                       # Average system read bandwidth in MiByte/s
system.mem_ctrls1.avgWrBWSys                   123.26                       # Average system write bandwidth in MiByte/s
system.mem_ctrls1.peakBW                     12800.00                       # Theoretical peak bandwidth in MiByte/s
system.mem_ctrls1.busUtil                        2.70                       # Data bus utilization in percentage
system.mem_ctrls1.busUtilRead                    1.73                       # Data bus utilization in percentage for reads
system.mem_ctrls1.busUtilWrite                   0.96                       # Data bus utilization in percentage for writes
system.mem_ctrls1.avgRdQLen                      1.19                       # Average read queue length when enqueuing
system.mem_ctrls1.avgWrQLen                      2.97                       # Average write queue length when enqueuing
system.mem_ctrls1.readRowHits                  245236                       # Number of row buffer hits during reads
system.mem_ctrls1.writeRowHits                 110566                       # Number of row buffer hits during writes
system.mem_ctrls1.readRowHitRate                75.85                       # Row buffer hit rate for reads
system.mem_ctrls1.writeRowHitRate               61.57                       # Row buffer hit rate for writes
system.mem_ctrls1.avgGap                    185400.71                       # Average gap between requests
system.mem_ctrls1.pageHitRate                   70.75                       # Row buffer hit rate, read and write combined
system.mem_ctrls1.memoryStateTime::IDLE   15386622250                       # Time in different power states
system.mem_ctrls1.memoryStateTime::REF     3113500000                       # Time in different power states
system.mem_ctrls1.memoryStateTime::PRE_PDN            0                       # Time in different power states
system.mem_ctrls1.memoryStateTime::ACT    74740495250                       # Time in different power states
system.mem_ctrls1.memoryStateTime::ACT_PDN            0                       # Time in different power states
system.mem_ctrls1.actEnergy::0              560876400                       # Energy for activate commands per rank (pJ)
system.mem_ctrls1.actEnergy::1              551010600                       # Energy for activate commands per rank (pJ)
system.mem_ctrls1.preEnergy::0              306033750                       # Energy for precharge commands per rank (pJ)
system.mem_ctrls1.preEnergy::1              300650625                       # Energy for precharge commands per rank (pJ)
system.mem_ctrls1.readEnergy::0            1266618600                       # Energy for read commands per rank (pJ)
system.mem_ctrls1.readEnergy::1            1255113600                       # Energy for read commands per rank (pJ)
system.mem_ctrls1.writeEnergy::0            583362000                       # Energy for write commands per rank (pJ)
system.mem_ctrls1.writeEnergy::1            580284000                       # Energy for write commands per rank (pJ)
system.mem_ctrls1.refreshEnergy::0         6090006000                       # Energy for refresh commands per rank (pJ)
system.mem_ctrls1.refreshEnergy::1         6090006000                       # Energy for refresh commands per rank (pJ)
system.mem_ctrls1.actBackEnergy::0        38327790375                       # Energy for active background per rank (pJ)
system.mem_ctrls1.actBackEnergy::1        37369860345                       # Energy for active background per rank (pJ)
system.mem_ctrls1.preBackEnergy::0        22323493500                       # Energy for precharge background per rank (pJ)
system.mem_ctrls1.preBackEnergy::1        23163783000                       # Energy for precharge background per rank (pJ)
system.mem_ctrls1.totalEnergy::0          69458180625                       # Total energy per rank (pJ)
system.mem_ctrls1.totalEnergy::1          69310708170                       # Total energy per rank (pJ)
system.mem_ctrls1.averagePower::0          744.934909                       # Core power per rank (mW)
system.mem_ctrls1.averagePower::1          743.353275                       # Core power per rank (mW)
system.mem_ctrls2.bytes_read::ruby.dir_cntrl2     20697536                       # Number of bytes read from this memory
system.mem_ctrls2.bytes_read::total          20697536                       # Number of bytes read from this memory
system.mem_ctrls2.bytes_written::ruby.dir_cntrl2     11494528                       # Number of bytes written to this memory
system.mem_ctrls2.bytes_written::total       11494528                       # Number of bytes written to this memory
system.mem_ctrls2.num_reads::ruby.dir_cntrl2       323399                       # Number of read requests responded to by this memory
system.mem_ctrls2.num_reads::total             323399                       # Number of read requests responded to by this memory
system.mem_ctrls2.num_writes::ruby.dir_cntrl2       179602                       # Number of write requests responded to by this memory
system.mem_ctrls2.num_writes::total            179602                       # Number of write requests responded to by this memory
system.mem_ctrls2.bw_read::ruby.dir_cntrl2    221977851                       # Total read bandwidth from this memory (bytes/s)
system.mem_ctrls2.bw_read::total            221977851                       # Total read bandwidth from this memory (bytes/s)
system.mem_ctrls2.bw_write::ruby.dir_cntrl2    123277023                       # Write bandwidth from this memory (bytes/s)
system.mem_ctrls2.bw_write::total           123277023                       # Write bandwidth from this memory (bytes/s)
system.mem_ctrls2.bw_total::ruby.dir_cntrl2    345254874                       # Total bandwidth to/from this memory (bytes/s)
system.mem_ctrls2.bw_total::total           345254874                       # Total bandwidth to/from this memory (bytes/s)
system.mem_ctrls2.readReqs                     323399                       # Number of read requests accepted
system.mem_ctrls2.writeReqs                    179602                       # Number of write requests accepted
system.mem_ctrls2.readBursts                   323399                       # Number of DRAM read bursts, including those serviced by the write queue
system.mem_ctrls2.writeBursts                  179602                       # Number of DRAM write bursts, including those merged in the write queue
system.mem_ctrls2.bytesReadDRAM              20696576                       # Total number of bytes read from DRAM
system.mem_ctrls2.bytesReadWrQ                    960                       # Total number of bytes read from write queue
system.mem_ctrls2.bytesWritten               11494400                       # Total number of bytes written to DRAM
system.mem_ctrls2.bytesReadSys               20697536                       # Total read bytes from the system interface side
system.mem_ctrls2.bytesWrittenSys            11494528                       # Total written bytes from the system interface side
system.mem_ctrls2.servicedByWrQ                    15                       # Number of DRAM read bursts serviced by the write queue
system.mem_ctrls2.mergedWrBursts                    0                       # Number of DRAM write bursts merged with an existing one
system.mem_ctrls2.neitherReadNorWriteReqs            0                       # Number of requests that are neither read nor write
system.mem_ctrls2.perBankRdBursts::0            19934                       # Per bank write bursts
system.mem_ctrls2.perBankRdBursts::1            20553                       # Per bank write bursts
system.mem_ctrls2.perBankRdBursts::2            20154                       # Per bank write bursts
system.mem_ctrls2.perBankRdBursts::3            20502                       # Per bank write bursts
system.mem_ctrls2.perBankRdBursts::4            20121                       # Per bank write bursts
system.mem_ctrls2.perBankRdBursts::5            20582                       # Per bank write bursts
system.mem_ctrls2.perBankRdBursts::6            20218                       # Per bank write bursts
system.mem_ctrls2.perBankRdBursts::7            20359                       # Per bank write bursts
system.mem_ctrls2.perBankRdBursts::8            20236                       # Per bank write bursts
system.mem_ctrls2.perBankRdBursts::9            20463                       # Per bank write bursts
system.mem_ctrls2.perBankRdBursts::10           20193                       # Per bank write bursts
system.mem_ctrls2.perBankRdBursts::11           20557                       # Per bank write bursts
system.mem_ctrls2.perBankRdBursts::12           19849                       # Per bank write bursts
system.mem_ctrls2.perBankRdBursts::13           19676                       # Per bank write bursts
system.mem_ctrls2.perBankRdBursts::14           19944                       # Per bank write bursts
system.mem_ctrls2.perBankRdBursts::15           20043                       # Per bank write bursts
system.mem_ctrls2.perBankWrBursts::0            11107                       # Per bank write bursts
system.mem_ctrls2.perBankWrBursts::1            11263                       # Per bank write bursts
system.mem_ctrls2.perBankWrBursts::2            11265                       # Per bank write bursts
system.mem_ctrls2.perBankWrBursts::3            11270                       # Per bank write bursts
system.mem_ctrls2.perBankWrBursts::4            11204                       # Per bank write bursts
system.mem_ctrls2.perBankWrBursts::5            11508                       # Per bank write bursts
system.mem_ctrls2.perBankWrBursts::6            11152                       # Per bank write bursts
system.mem_ctrls2.perBankWrBursts::7            11265                       # Per bank write bursts
system.mem_ctrls2.perBankWrBursts::8            11462                       # Per bank write bursts
system.mem_ctrls2.perBankWrBursts::9            11317                       # Per bank write bursts
system.mem_ctrls2.perBankWrBursts::10           11110                       # Per bank write bursts
system.mem_ctrls2.perBankWrBursts::11           11310                       # Per bank write bursts
system.mem_ctrls2.perBankWrBursts::12           10957                       # Per bank write bursts
system.mem_ctrls2.perBankWrBursts::13           10905                       # Per bank write bursts
system.mem_ctrls2.perBankWrBursts::14           11294                       # Per bank write bursts
system.mem_ctrls2.perBankWrBursts::15           11211                       # Per bank write bursts
system.mem_ctrls2.numRdRetry                     2196                       # Number of times read queue was full causing retry
system.mem_ctrls2.numWrRetry                     1753                       # Number of times write queue was full causing retry
system.mem_ctrls2.totGap                  93241305500                       # Total gap between requests
system.mem_ctrls2.readPktSize::0                    0                       # Read request sizes (log2)
system.mem_ctrls2.readPktSize::1                    0                       # Read request sizes (log2)
system.mem_ctrls2.readPktSize::2                    0                       # Read request sizes (log2)
system.mem_ctrls2.readPktSize::3                    0                       # Read request sizes (log2)
system.mem_ctrls2.readPktSize::4                    0                       # Read request sizes (log2)
system.mem_ctrls2.readPktSize::5                    0                       # Read request sizes (log2)
system.mem_ctrls2.readPktSize::6               323399                       # Read request sizes (log2)
system.mem_ctrls2.writePktSize::0                   0                       # Write request sizes (log2)
system.mem_ctrls2.writePktSize::1                   0                       # Write request sizes (log2)
system.mem_ctrls2.writePktSize::2                   0                       # Write request sizes (log2)
system.mem_ctrls2.writePktSize::3                   0                       # Write request sizes (log2)
system.mem_ctrls2.writePktSize::4                   0                       # Write request sizes (log2)
system.mem_ctrls2.writePktSize::5                   0                       # Write request sizes (log2)
system.mem_ctrls2.writePktSize::6              179602                       # Write request sizes (log2)
system.mem_ctrls2.rdQLenPdf::0                 155309                       # What read queue length does an incoming req see
system.mem_ctrls2.rdQLenPdf::1                  37715                       # What read queue length does an incoming req see
system.mem_ctrls2.rdQLenPdf::2                  29254                       # What read queue length does an incoming req see
system.mem_ctrls2.rdQLenPdf::3                  22115                       # What read queue length does an incoming req see
system.mem_ctrls2.rdQLenPdf::4                  16472                       # What read queue length does an incoming req see
system.mem_ctrls2.rdQLenPdf::5                  12705                       # What read queue length does an incoming req see
system.mem_ctrls2.rdQLenPdf::6                   9706                       # What read queue length does an incoming req see
system.mem_ctrls2.rdQLenPdf::7                   7496                       # What read queue length does an incoming req see
system.mem_ctrls2.rdQLenPdf::8                   5921                       # What read queue length does an incoming req see
system.mem_ctrls2.rdQLenPdf::9                   4599                       # What read queue length does an incoming req see
system.mem_ctrls2.rdQLenPdf::10                  3602                       # What read queue length does an incoming req see
system.mem_ctrls2.rdQLenPdf::11                  2802                       # What read queue length does an incoming req see
system.mem_ctrls2.rdQLenPdf::12                  2178                       # What read queue length does an incoming req see
system.mem_ctrls2.rdQLenPdf::13                  1791                       # What read queue length does an incoming req see
system.mem_ctrls2.rdQLenPdf::14                  1489                       # What read queue length does an incoming req see
system.mem_ctrls2.rdQLenPdf::15                  1222                       # What read queue length does an incoming req see
system.mem_ctrls2.rdQLenPdf::16                  1043                       # What read queue length does an incoming req see
system.mem_ctrls2.rdQLenPdf::17                   875                       # What read queue length does an incoming req see
system.mem_ctrls2.rdQLenPdf::18                   721                       # What read queue length does an incoming req see
system.mem_ctrls2.rdQLenPdf::19                   618                       # What read queue length does an incoming req see
system.mem_ctrls2.rdQLenPdf::20                   517                       # What read queue length does an incoming req see
system.mem_ctrls2.rdQLenPdf::21                   416                       # What read queue length does an incoming req see
system.mem_ctrls2.rdQLenPdf::22                   357                       # What read queue length does an incoming req see
system.mem_ctrls2.rdQLenPdf::23                   333                       # What read queue length does an incoming req see
system.mem_ctrls2.rdQLenPdf::24                   292                       # What read queue length does an incoming req see
system.mem_ctrls2.rdQLenPdf::25                   261                       # What read queue length does an incoming req see
system.mem_ctrls2.rdQLenPdf::26                   237                       # What read queue length does an incoming req see
system.mem_ctrls2.rdQLenPdf::27                   227                       # What read queue length does an incoming req see
system.mem_ctrls2.rdQLenPdf::28                   203                       # What read queue length does an incoming req see
system.mem_ctrls2.rdQLenPdf::29                   210                       # What read queue length does an incoming req see
system.mem_ctrls2.rdQLenPdf::30                   218                       # What read queue length does an incoming req see
system.mem_ctrls2.rdQLenPdf::31                  2480                       # What read queue length does an incoming req see
system.mem_ctrls2.wrQLenPdf::0                  32226                       # What write queue length does an incoming req see
system.mem_ctrls2.wrQLenPdf::1                  34483                       # What write queue length does an incoming req see
system.mem_ctrls2.wrQLenPdf::2                  34986                       # What write queue length does an incoming req see
system.mem_ctrls2.wrQLenPdf::3                  34899                       # What write queue length does an incoming req see
system.mem_ctrls2.wrQLenPdf::4                  34529                       # What write queue length does an incoming req see
system.mem_ctrls2.wrQLenPdf::5                   3191                       # What write queue length does an incoming req see
system.mem_ctrls2.wrQLenPdf::6                   2197                       # What write queue length does an incoming req see
system.mem_ctrls2.wrQLenPdf::7                   3091                       # What write queue length does an incoming req see
system.mem_ctrls2.bytesPerActivate::samples       145847                       # Bytes accessed per row activation
system.mem_ctrls2.bytesPerActivate::mean   220.716120                       # Bytes accessed per row activation
system.mem_ctrls2.bytesPerActivate::gmean   165.020891                       # Bytes accessed per row activation
system.mem_ctrls2.bytesPerActivate::stdev   182.321737                       # Bytes accessed per row activation
system.mem_ctrls2.bytesPerActivate::0-127        44769     30.70%     30.70% # Bytes accessed per row activation
system.mem_ctrls2.bytesPerActivate::128-255        40960     28.08%     58.78% # Bytes accessed per row activation
system.mem_ctrls2.bytesPerActivate::256-383        43108     29.56%     88.34% # Bytes accessed per row activation
system.mem_ctrls2.bytesPerActivate::384-511         6558      4.50%     92.83% # Bytes accessed per row activation
system.mem_ctrls2.bytesPerActivate::512-639         4037      2.77%     95.60% # Bytes accessed per row activation
system.mem_ctrls2.bytesPerActivate::640-767         2158      1.48%     97.08% # Bytes accessed per row activation
system.mem_ctrls2.bytesPerActivate::768-895         1424      0.98%     98.06% # Bytes accessed per row activation
system.mem_ctrls2.bytesPerActivate::896-1023          935      0.64%     98.70% # Bytes accessed per row activation
system.mem_ctrls2.bytesPerActivate::1024-1151         1898      1.30%    100.00% # Bytes accessed per row activation
system.mem_ctrls2.bytesPerActivate::total       145847                       # Bytes accessed per row activation
system.mem_ctrls2.rdPerTurnAround::samples        32443                       # Reads before turning the bus around for writes
system.mem_ctrls2.rdPerTurnAround::mean      9.967389                       # Reads before turning the bus around for writes
system.mem_ctrls2.rdPerTurnAround::stdev    19.911056                       # Reads before turning the bus around for writes
system.mem_ctrls2.rdPerTurnAround::0-127        32436     99.98%     99.98% # Reads before turning the bus around for writes
system.mem_ctrls2.rdPerTurnAround::128-255            5      0.02%     99.99% # Reads before turning the bus around for writes
system.mem_ctrls2.rdPerTurnAround::1152-1279            1      0.00%    100.00% # Reads before turning the bus around for writes
system.mem_ctrls2.rdPerTurnAround::2816-2943            1      0.00%    100.00% # Reads before turning the bus around for writes
system.mem_ctrls2.rdPerTurnAround::total        32443                       # Reads before turning the bus around for writes
system.mem_ctrls2.wrPerTurnAround::samples        32443                       # Writes before turning the bus around for reads
system.mem_ctrls2.wrPerTurnAround::mean      5.535863                       # Writes before turning the bus around for reads
system.mem_ctrls2.wrPerTurnAround::gmean     5.395929                       # Writes before turning the bus around for reads
system.mem_ctrls2.wrPerTurnAround::stdev     1.606187                       # Writes before turning the bus around for reads
system.mem_ctrls2.wrPerTurnAround::4-7          30114     92.82%     92.82% # Writes before turning the bus around for reads
system.mem_ctrls2.wrPerTurnAround::8-11          1709      5.27%     98.09% # Writes before turning the bus around for reads
system.mem_ctrls2.wrPerTurnAround::12-15          337      1.04%     99.13% # Writes before turning the bus around for reads
system.mem_ctrls2.wrPerTurnAround::16-19          283      0.87%    100.00% # Writes before turning the bus around for reads
system.mem_ctrls2.wrPerTurnAround::total        32443                       # Writes before turning the bus around for reads
system.mem_ctrls2.totQLat                 12210556367                       # Total ticks spent queuing
system.mem_ctrls2.totMemAccLat            18274006367                       # Total ticks spent from burst creation until serviced by the DRAM
system.mem_ctrls2.totBusLat                1616920000                       # Total ticks spent in databus transfers
system.mem_ctrls2.avgQLat                    37758.69                       # Average queueing delay per DRAM burst
system.mem_ctrls2.avgBusLat                   5000.00                       # Average bus latency per DRAM burst
system.mem_ctrls2.avgMemAccLat               56508.69                       # Average memory access latency per DRAM burst
system.mem_ctrls2.avgRdBW                      221.97                       # Average DRAM read bandwidth in MiByte/s
system.mem_ctrls2.avgWrBW                      123.28                       # Average achieved write bandwidth in MiByte/s
system.mem_ctrls2.avgRdBWSys                   221.98                       # Average system read bandwidth in MiByte/s
system.mem_ctrls2.avgWrBWSys                   123.28                       # Average system write bandwidth in MiByte/s
system.mem_ctrls2.peakBW                     12800.00                       # Theoretical peak bandwidth in MiByte/s
system.mem_ctrls2.busUtil                        2.70                       # Data bus utilization in percentage
system.mem_ctrls2.busUtilRead                    1.73                       # Data bus utilization in percentage for reads
system.mem_ctrls2.busUtilWrite                   0.96                       # Data bus utilization in percentage for writes
system.mem_ctrls2.avgRdQLen                      1.19                       # Average read queue length when enqueuing
system.mem_ctrls2.avgWrQLen                      2.97                       # Average write queue length when enqueuing
system.mem_ctrls2.readRowHits                  245625                       # Number of row buffer hits during reads
system.mem_ctrls2.writeRowHits                 111510                       # Number of row buffer hits during writes
system.mem_ctrls2.readRowHitRate                75.95                       # Row buffer hit rate for reads
system.mem_ctrls2.writeRowHitRate               62.09                       # Row buffer hit rate for writes
system.mem_ctrls2.avgGap                    185370.02                       # Average gap between requests
system.mem_ctrls2.pageHitRate                   71.00                       # Row buffer hit rate, read and write combined
system.mem_ctrls2.memoryStateTime::IDLE   15443221750                       # Time in different power states
system.mem_ctrls2.memoryStateTime::REF     3113500000                       # Time in different power states
system.mem_ctrls2.memoryStateTime::PRE_PDN            0                       # Time in different power states
system.mem_ctrls2.memoryStateTime::ACT    74683895750                       # Time in different power states
system.mem_ctrls2.memoryStateTime::ACT_PDN            0                       # Time in different power states
system.mem_ctrls2.actEnergy::0              557330760                       # Energy for activate commands per rank (pJ)
system.mem_ctrls2.actEnergy::1              545272560                       # Energy for activate commands per rank (pJ)
system.mem_ctrls2.preEnergy::0              304099125                       # Energy for precharge commands per rank (pJ)
system.mem_ctrls2.preEnergy::1              297519750                       # Energy for precharge commands per rank (pJ)
system.mem_ctrls2.readEnergy::0            1266883800                       # Energy for read commands per rank (pJ)
system.mem_ctrls2.readEnergy::1            1255488000                       # Energy for read commands per rank (pJ)
system.mem_ctrls2.writeEnergy::0            583420320                       # Energy for write commands per rank (pJ)
system.mem_ctrls2.writeEnergy::1            580387680                       # Energy for write commands per rank (pJ)
system.mem_ctrls2.refreshEnergy::0         6090006000                       # Energy for refresh commands per rank (pJ)
system.mem_ctrls2.refreshEnergy::1         6090006000                       # Energy for refresh commands per rank (pJ)
system.mem_ctrls2.actBackEnergy::0        38208546945                       # Energy for active background per rank (pJ)
system.mem_ctrls2.actBackEnergy::1        37294516890                       # Energy for active background per rank (pJ)
system.mem_ctrls2.preBackEnergy::0        22428093000                       # Energy for precharge background per rank (pJ)
system.mem_ctrls2.preBackEnergy::1        23229873750                       # Energy for precharge background per rank (pJ)
system.mem_ctrls2.totalEnergy::0          69438379950                       # Total energy per rank (pJ)
system.mem_ctrls2.totalEnergy::1          69293064630                       # Total energy per rank (pJ)
system.mem_ctrls2.averagePower::0          744.722547                       # Core power per rank (mW)
system.mem_ctrls2.averagePower::1          743.164049                       # Core power per rank (mW)
system.mem_ctrls3.bytes_read::ruby.dir_cntrl3     20676992                       # Number of bytes read from this memory
system.mem_ctrls3.bytes_read::total          20676992                       # Number of bytes read from this memory
system.mem_ctrls3.bytes_written::ruby.dir_cntrl3     11492032                       # Number of bytes written to this memory
system.mem_ctrls3.bytes_written::total       11492032                       # Number of bytes written to this memory
system.mem_ctrls3.num_reads::ruby.dir_cntrl3       323078                       # Number of read requests responded to by this memory
system.mem_ctrls3.num_reads::total             323078                       # Number of read requests responded to by this memory
system.mem_ctrls3.num_writes::ruby.dir_cntrl3       179563                       # Number of write requests responded to by this memory
system.mem_ctrls3.num_writes::total            179563                       # Number of write requests responded to by this memory
system.mem_ctrls3.bw_read::ruby.dir_cntrl3    221757519                       # Total read bandwidth from this memory (bytes/s)
system.mem_ctrls3.bw_read::total            221757519                       # Total read bandwidth from this memory (bytes/s)
system.mem_ctrls3.bw_write::ruby.dir_cntrl3    123250254                       # Write bandwidth from this memory (bytes/s)
system.mem_ctrls3.bw_write::total           123250254                       # Write bandwidth from this memory (bytes/s)
system.mem_ctrls3.bw_total::ruby.dir_cntrl3    345007773                       # Total bandwidth to/from this memory (bytes/s)
system.mem_ctrls3.bw_total::total           345007773                       # Total bandwidth to/from this memory (bytes/s)
system.mem_ctrls3.readReqs                     323079                       # Number of read requests accepted
system.mem_ctrls3.writeReqs                    179563                       # Number of write requests accepted
system.mem_ctrls3.readBursts                   323079                       # Number of DRAM read bursts, including those serviced by the write queue
system.mem_ctrls3.writeBursts                  179563                       # Number of DRAM write bursts, including those merged in the write queue
system.mem_ctrls3.bytesReadDRAM              20676352                       # Total number of bytes read from DRAM
system.mem_ctrls3.bytesReadWrQ                    704                       # Total number of bytes read from write queue
system.mem_ctrls3.bytesWritten               11491776                       # Total number of bytes written to DRAM
system.mem_ctrls3.bytesReadSys               20677056                       # Total read bytes from the system interface side
system.mem_ctrls3.bytesWrittenSys            11492032                       # Total written bytes from the system interface side
system.mem_ctrls3.servicedByWrQ                    11                       # Number of DRAM read bursts serviced by the write queue
system.mem_ctrls3.mergedWrBursts                    0                       # Number of DRAM write bursts merged with an existing one
system.mem_ctrls3.neitherReadNorWriteReqs            0                       # Number of requests that are neither read nor write
system.mem_ctrls3.perBankRdBursts::0            19923                       # Per bank write bursts
system.mem_ctrls3.perBankRdBursts::1            20541                       # Per bank write bursts
system.mem_ctrls3.perBankRdBursts::2            20023                       # Per bank write bursts
system.mem_ctrls3.perBankRdBursts::3            20478                       # Per bank write bursts
system.mem_ctrls3.perBankRdBursts::4            20090                       # Per bank write bursts
system.mem_ctrls3.perBankRdBursts::5            20549                       # Per bank write bursts
system.mem_ctrls3.perBankRdBursts::6            20243                       # Per bank write bursts
system.mem_ctrls3.perBankRdBursts::7            20329                       # Per bank write bursts
system.mem_ctrls3.perBankRdBursts::8            20222                       # Per bank write bursts
system.mem_ctrls3.perBankRdBursts::9            20450                       # Per bank write bursts
system.mem_ctrls3.perBankRdBursts::10           20229                       # Per bank write bursts
system.mem_ctrls3.perBankRdBursts::11           20494                       # Per bank write bursts
system.mem_ctrls3.perBankRdBursts::12           19820                       # Per bank write bursts
system.mem_ctrls3.perBankRdBursts::13           19691                       # Per bank write bursts
system.mem_ctrls3.perBankRdBursts::14           19984                       # Per bank write bursts
system.mem_ctrls3.perBankRdBursts::15           20002                       # Per bank write bursts
system.mem_ctrls3.perBankWrBursts::0            11097                       # Per bank write bursts
system.mem_ctrls3.perBankWrBursts::1            11260                       # Per bank write bursts
system.mem_ctrls3.perBankWrBursts::2            11268                       # Per bank write bursts
system.mem_ctrls3.perBankWrBursts::3            11249                       # Per bank write bursts
system.mem_ctrls3.perBankWrBursts::4            11209                       # Per bank write bursts
system.mem_ctrls3.perBankWrBursts::5            11514                       # Per bank write bursts
system.mem_ctrls3.perBankWrBursts::6            11138                       # Per bank write bursts
system.mem_ctrls3.perBankWrBursts::7            11256                       # Per bank write bursts
system.mem_ctrls3.perBankWrBursts::8            11459                       # Per bank write bursts
system.mem_ctrls3.perBankWrBursts::9            11325                       # Per bank write bursts
system.mem_ctrls3.perBankWrBursts::10           11113                       # Per bank write bursts
system.mem_ctrls3.perBankWrBursts::11           11320                       # Per bank write bursts
system.mem_ctrls3.perBankWrBursts::12           10959                       # Per bank write bursts
system.mem_ctrls3.perBankWrBursts::13           10906                       # Per bank write bursts
system.mem_ctrls3.perBankWrBursts::14           11295                       # Per bank write bursts
system.mem_ctrls3.perBankWrBursts::15           11191                       # Per bank write bursts
system.mem_ctrls3.numRdRetry                     2186                       # Number of times read queue was full causing retry
system.mem_ctrls3.numWrRetry                     1702                       # Number of times write queue was full causing retry
system.mem_ctrls3.totGap                  93240705500                       # Total gap between requests
system.mem_ctrls3.readPktSize::0                    0                       # Read request sizes (log2)
system.mem_ctrls3.readPktSize::1                    0                       # Read request sizes (log2)
system.mem_ctrls3.readPktSize::2                    0                       # Read request sizes (log2)
system.mem_ctrls3.readPktSize::3                    0                       # Read request sizes (log2)
system.mem_ctrls3.readPktSize::4                    0                       # Read request sizes (log2)
system.mem_ctrls3.readPktSize::5                    0                       # Read request sizes (log2)
system.mem_ctrls3.readPktSize::6               323079                       # Read request sizes (log2)
system.mem_ctrls3.writePktSize::0                   0                       # Write request sizes (log2)
system.mem_ctrls3.writePktSize::1                   0                       # Write request sizes (log2)
system.mem_ctrls3.writePktSize::2                   0                       # Write request sizes (log2)
system.mem_ctrls3.writePktSize::3                   0                       # Write request sizes (log2)
system.mem_ctrls3.writePktSize::4                   0                       # Write request sizes (log2)
system.mem_ctrls3.writePktSize::5                   0                       # Write request sizes (log2)
system.mem_ctrls3.writePktSize::6              179563                       # Write request sizes (log2)
system.mem_ctrls3.rdQLenPdf::0                 155123                       # What read queue length does an incoming req see
system.mem_ctrls3.rdQLenPdf::1                  38230                       # What read queue length does an incoming req see
system.mem_ctrls3.rdQLenPdf::2                  29757                       # What read queue length does an incoming req see
system.mem_ctrls3.rdQLenPdf::3                  22002                       # What read queue length does an incoming req see
system.mem_ctrls3.rdQLenPdf::4                  16497                       # What read queue length does an incoming req see
system.mem_ctrls3.rdQLenPdf::5                  12587                       # What read queue length does an incoming req see
system.mem_ctrls3.rdQLenPdf::6                   9576                       # What read queue length does an incoming req see
system.mem_ctrls3.rdQLenPdf::7                   7329                       # What read queue length does an incoming req see
system.mem_ctrls3.rdQLenPdf::8                   5750                       # What read queue length does an incoming req see
system.mem_ctrls3.rdQLenPdf::9                   4528                       # What read queue length does an incoming req see
system.mem_ctrls3.rdQLenPdf::10                  3677                       # What read queue length does an incoming req see
system.mem_ctrls3.rdQLenPdf::11                  2843                       # What read queue length does an incoming req see
system.mem_ctrls3.rdQLenPdf::12                  2305                       # What read queue length does an incoming req see
system.mem_ctrls3.rdQLenPdf::13                  1902                       # What read queue length does an incoming req see
system.mem_ctrls3.rdQLenPdf::14                  1482                       # What read queue length does an incoming req see
system.mem_ctrls3.rdQLenPdf::15                  1172                       # What read queue length does an incoming req see
system.mem_ctrls3.rdQLenPdf::16                   986                       # What read queue length does an incoming req see
system.mem_ctrls3.rdQLenPdf::17                   786                       # What read queue length does an incoming req see
system.mem_ctrls3.rdQLenPdf::18                   673                       # What read queue length does an incoming req see
system.mem_ctrls3.rdQLenPdf::19                   565                       # What read queue length does an incoming req see
system.mem_ctrls3.rdQLenPdf::20                   460                       # What read queue length does an incoming req see
system.mem_ctrls3.rdQLenPdf::21                   403                       # What read queue length does an incoming req see
system.mem_ctrls3.rdQLenPdf::22                   336                       # What read queue length does an incoming req see
system.mem_ctrls3.rdQLenPdf::23                   258                       # What read queue length does an incoming req see
system.mem_ctrls3.rdQLenPdf::24                   234                       # What read queue length does an incoming req see
[...]
system.ruby.L2Cache_Controller.MT_MB.L1_PUTX::total           58                      
system.ruby.L2Cache_Controller.MT_MB.Exclusive_Unblock |      152667      5.70%      5.70% |       82611      3.08%      8.78% |       81220      3.03%     11.82% |       82046      3.06%     14.88% |       80962      3.02%     17.90% |       80701      3.01%     20.91% |       80857      3.02%     23.93% |       80604      3.01%     26.94% |       80861      3.02%     29.96% |       81671      3.05%     33.01% |       83011      3.10%     36.11% |       82180      3.07%     39.18% |       81641      3.05%     42.22% |       80342      3.00%     45.22% |       79885      2.98%     48.21% |       80499      3.01%     51.21% |       81487      3.04%     54.25% |       80761      3.02%     57.27% |       81544      3.04%     60.31% |       81571      3.05%     63.36% |       81401      3.04%     66.40% |       83674      3.12%     69.52% |       81602      3.05%     72.57% |       81161      3.03%     75.60% |       81177      3.03%     78.63% |       81444      3.04%     81.67% |       81117      3.03%     84.70% |       80572      3.01%     87.71% |       80826      3.02%     90.72% |       80383      3.00%     93.72% |       83172      3.11%     96.83% |       84947      3.17%    100.00%
system.ruby.L2Cache_Controller.MT_MB.Exclusive_Unblock::total      2678597                      
system.ruby.L2Cache_Controller.MT_IIB.L1_GETS |           0      0.00%      0.00% |           0      0.00%      0.00% |           0      0.00%      0.00% |           0      0.00%      0.00% |           2     33.33%     33.33% |           0      0.00%     33.33% |           0      0.00%     33.33% |           0      0.00%     33.33% |           1     16.67%     50.00% |           0      0.00%     50.00% |           0      0.00%     50.00% |           0      0.00%     50.00% |           2     33.33%     83.33% |           0      0.00%     83.33% |           0      0.00%     83.33% |           0      0.00%     83.33% |           0      0.00%     83.33% |           1     16.67%    100.00% |           0      0.00%    100.00% |           0      0.00%    100.00% |           0      0.00%    100.00% |           0      0.00%    100.00% |           0      0.00%    100.00% |           0      0.00%    100.00% |           0      0.00%    100.00% |           0      0.00%    100.00% |           0      0.00%    100.00% |           0      0.00%    100.00% |           0      0.00%    100.00% |           0      0.00%    100.00% |           0      0.00%    100.00% |           0      0.00%    100.00%
system.ruby.L2Cache_Controller.MT_IIB.L1_GETS::total            6                      
system.ruby.L2Cache_Controller.MT_IIB.L1_PUTX |           9      2.67%      2.67% |           9      2.67%      5.34% |          10      2.97%      8.31% |           4      1.19%      9.50% |           8      2.37%     11.87% |           7      2.08%     13.95% |          12      3.56%     17.51% |          10      2.97%     20.47% |           8      2.37%     22.85% |          10      2.97%     25.82% |          14      4.15%     29.97% |          11      3.26%     33.23% |          11      3.26%     36.50% |          12      3.56%     40.06% |          15      4.45%     44.51% |          12      3.56%     48.07% |          11      3.26%     51.34% |           5      1.48%     52.82% |          15      4.45%     57.27% |          10      2.97%     60.24% |          11      3.26%     63.50% |           7      2.08%     65.58% |          12      3.56%     69.14% |           9      2.67%     71.81% |          12      3.56%     75.37% |          12      3.56%     78.93% |          19      5.64%     84.57% |          14      4.15%     88.72% |          11      3.26%     91.99% |           7      2.08%     94.07% |           6      1.78%     95.85% |          14      4.15%    100.00%
system.ruby.L2Cache_Controller.MT_IIB.L1_PUTX::total          337                      
system.ruby.L2Cache_Controller.MT_IIB.WB_Data |           0      0.00%      0.00% |           0      0.00%      0.00% |           0      0.00%      0.00% |           0      0.00%      0.00% |           0      0.00%      0.00% |           0      0.00%      0.00% |           0      0.00%      0.00% |           0      0.00%      0.00% |           0      0.00%      0.00% |           0      0.00%      0.00% |           0      0.00%      0.00% |           0      0.00%      0.00% |           0      0.00%      0.00% |           0      0.00%      0.00% |           0      0.00%      0.00% |           0      0.00%      0.00% |           0      0.00%      0.00% |           0      0.00%      0.00% |           0      0.00%      0.00% |           0      0.00%      0.00% |           0      0.00%      0.00% |           0      0.00%      0.00% |           0      0.00%      0.00% |           0      0.00%      0.00% |           0      0.00%      0.00% |           2    100.00%    100.00% |           0      0.00%    100.00% |           0      0.00%    100.00% |           0      0.00%    100.00% |           0      0.00%    100.00% |           0      0.00%    100.00% |           0      0.00%    100.00%
system.ruby.L2Cache_Controller.MT_IIB.WB_Data::total            2                      
system.ruby.L2Cache_Controller.MT_IIB.WB_Data_clean |        1848      3.13%      3.13% |        1818      3.08%      6.22% |        1815      3.08%      9.30% |        1857      3.15%     12.45% |        1880      3.19%     15.63% |        1847      3.13%     18.77% |        1853      3.14%     21.91% |        1831      3.11%     25.01% |        1802      3.06%     28.07% |        1881      3.19%     31.26% |        1881      3.19%     34.45% |        1888      3.20%     37.65% |        1907      3.23%     40.89% |        1844      3.13%     44.02% |        1862      3.16%     47.17% |        1845      3.13%     50.30% |        1847      3.13%     53.44% |        1853      3.14%     56.58% |        1869      3.17%     59.75% |        1860      3.15%     62.90% |        1886      3.20%     66.10% |        1832      3.11%     69.21% |        1828      3.10%     72.31% |        1785      3.03%     75.34% |        1808      3.07%     78.40% |        1775      3.01%     81.41% |        1776      3.01%     84.43% |        1833      3.11%     87.53% |        1907      3.23%     90.77% |        1821      3.09%     93.86% |        1863      3.16%     97.02% |        1759      2.98%    100.00%
system.ruby.L2Cache_Controller.MT_IIB.WB_Data_clean::total        58961                      
system.ruby.L2Cache_Controller.MT_IIB.Unblock |          19      0.93%      0.93% |          40      1.96%      2.89% |          67      3.29%      6.18% |          52      2.55%      8.73% |          54      2.65%     11.38% |          63      3.09%     14.47% |          67      3.29%     17.75% |          60      2.94%     20.70% |         115      5.64%     26.34% |          72      3.53%     29.87% |          86      4.22%     34.09% |          65      3.19%     37.27% |          49      2.40%     39.68% |          99      4.86%     44.53% |          53      2.60%     47.13% |          29      1.42%     48.55% |          61      2.99%     51.54% |          76      3.73%     55.27% |          70      3.43%     58.71% |          79      3.87%     62.58% |          89      4.36%     66.94% |          72      3.53%     70.48% |          59      2.89%     73.37% |          40      1.96%     75.33% |          65      3.19%     78.52% |          49      2.40%     80.92% |          69      3.38%     84.31% |          62      3.04%     87.35% |          38      1.86%     89.21% |          80      3.92%     93.13% |          57      2.80%     95.93% |          83      4.07%    100.00%
system.ruby.L2Cache_Controller.MT_IIB.Unblock::total         2039                      
system.ruby.L2Cache_Controller.MT_IB.L1_PUTX |           0      0.00%      0.00% |           0      0.00%      0.00% |           0      0.00%      0.00% |           0      0.00%      0.00% |           0      0.00%      0.00% |           1    100.00%    100.00% |           0      0.00%    100.00% |           0      0.00%    100.00% |           0      0.00%    100.00% |           0      0.00%    100.00% |           0      0.00%    100.00% |           0      0.00%    100.00% |           0      0.00%    100.00% |           0      0.00%    100.00% |           0      0.00%    100.00% |           0      0.00%    100.00% |           0      0.00%    100.00% |           0      0.00%    100.00% |           0      0.00%    100.00% |           0      0.00%    100.00% |           0      0.00%    100.00% |           0      0.00%    100.00% |           0      0.00%    100.00% |           0      0.00%    100.00% |           0      0.00%    100.00% |           0      0.00%    100.00% |           0      0.00%    100.00% |           0      0.00%    100.00% |           0      0.00%    100.00% |           0      0.00%    100.00% |           0      0.00%    100.00% |           0      0.00%    100.00%
system.ruby.L2Cache_Controller.MT_IB.L1_PUTX::total            1                      
system.ruby.L2Cache_Controller.MT_IB.WB_Data_clean |          19      0.93%      0.93% |          40      1.96%      2.89% |          67      3.29%      6.18% |          52      2.55%      8.73% |          54      2.65%     11.38% |          63      3.09%     14.47% |          67      3.29%     17.75% |          60      2.94%     20.70% |         115      5.64%     26.34% |          72      3.53%     29.87% |          86      4.22%     34.09% |          65      3.19%     37.27% |          49      2.40%     39.68% |          99      4.86%     44.53% |          53      2.60%     47.13% |          29      1.42%     48.55% |          61      2.99%     51.54% |          76      3.73%     55.27% |          70      3.43%     58.71% |          79      3.87%     62.58% |          89      4.36%     66.94% |          72      3.53%     70.48% |          59      2.89%     73.37% |          40      1.96%     75.33% |          65      3.19%     78.52% |          49      2.40%     80.92% |          69      3.38%     84.31% |          62      3.04%     87.35% |          38      1.86%     89.21% |          80      3.92%     93.13% |          57      2.80%     95.93% |          83      4.07%    100.00%
system.ruby.L2Cache_Controller.MT_IB.WB_Data_clean::total         2039                      
system.ruby.L2Cache_Controller.MT_SB.L1_GETS |           0      0.00%      0.00% |           0      0.00%      0.00% |           0      0.00%      0.00% |           0      0.00%      0.00% |           0      0.00%      0.00% |           1     33.33%     33.33% |           0      0.00%     33.33% |           0      0.00%     33.33% |           0      0.00%     33.33% |           0      0.00%     33.33% |           0      0.00%     33.33% |           1     33.33%     66.67% |           0      0.00%     66.67% |           0      0.00%     66.67% |           0      0.00%     66.67% |           0      0.00%     66.67% |           0      0.00%     66.67% |           0      0.00%     66.67% |           0      0.00%     66.67% |           0      0.00%     66.67% |           0      0.00%     66.67% |           0      0.00%     66.67% |           0      0.00%     66.67% |           0      0.00%     66.67% |           0      0.00%     66.67% |           0      0.00%     66.67% |           0      0.00%     66.67% |           0      0.00%     66.67% |           0      0.00%     66.67% |           1     33.33%    100.00% |           0      0.00%    100.00% |           0      0.00%    100.00%
system.ruby.L2Cache_Controller.MT_SB.L1_GETS::total            3                      
system.ruby.L2Cache_Controller.MT_SB.L1_PUTX |           2     25.00%     25.00% |           0      0.00%     25.00% |           0      0.00%     25.00% |           0      0.00%     25.00% |           0      0.00%     25.00% |           0      0.00%     25.00% |           0      0.00%     25.00% |           0      0.00%     25.00% |           0      0.00%     25.00% |           0      0.00%     25.00% |           0      0.00%     25.00% |           0      0.00%     25.00% |           0      0.00%     25.00% |           1     12.50%     37.50% |           0      0.00%     37.50% |           1     12.50%     50.00% |           0      0.00%     50.00% |           0      0.00%     50.00% |           0      0.00%     50.00% |           0      0.00%     50.00% |           0      0.00%     50.00% |           0      0.00%     50.00% |           0      0.00%     50.00% |           0      0.00%     50.00% |           0      0.00%     50.00% |           0      0.00%     50.00% |           0      0.00%     50.00% |           2     25.00%     75.00% |           1     12.50%     87.50% |           1     12.50%    100.00% |           0      0.00%    100.00% |           0      0.00%    100.00%
system.ruby.L2Cache_Controller.MT_SB.L1_PUTX::total            8                      
system.ruby.L2Cache_Controller.MT_SB.Unblock |        1848      3.13%      3.13% |        1818      3.08%      6.22% |        1815      3.08%      9.30% |        1857      3.15%     12.45% |        1880      3.19%     15.63% |        1847      3.13%     18.77% |        1853      3.14%     21.91% |        1831      3.11%     25.01% |        1802      3.06%     28.07% |        1881      3.19%     31.26% |        1881      3.19%     34.45% |        1888      3.20%     37.65% |        1907      3.23%     40.89% |        1844      3.13%     44.01% |        1862      3.16%     47.17% |        1845      3.13%     50.30% |        1847      3.13%     53.43% |        1853      3.14%     56.58% |        1869      3.17%     59.75% |        1860      3.15%     62.90% |        1886      3.20%     66.10% |        1832      3.11%     69.21% |        1828      3.10%     72.31% |        1785      3.03%     75.33% |        1808      3.07%     78.40% |        1777      3.01%     81.41% |        1776      3.01%     84.43% |        1833      3.11%     87.53% |        1907      3.23%     90.77% |        1821      3.09%     93.86% |        1863      3.16%     97.02% |        1759      2.98%    100.00%
system.ruby.L2Cache_Controller.MT_SB.Unblock::total        58963                      
system.ruby.SimicsNetworkPortInterface_Controller.MessageSend |      511624     19.70%     19.70% |     1298425     50.00%     69.70% |       96769      3.73%     73.43% |      106011      4.08%     77.51% |       94735      3.65%     81.16% |      106449      4.10%     85.26% |      100337      3.86%     89.12% |      100290      3.86%     92.98% |       89701      3.45%     96.44% |       92509      3.56%    100.00% |           0      0.00%    100.00% |           0      0.00%    100.00% |           0      0.00%    100.00% |           0      0.00%    100.00% |           0      0.00%    100.00% |           0      0.00%    100.00% |           0      0.00%    100.00% |           0      0.00%    100.00% |           0      0.00%    100.00% |           0      0.00%    100.00% |           0      0.00%    100.00% |           0      0.00%    100.00% |           0      0.00%    100.00% |           0      0.00%    100.00% |           0      0.00%    100.00% |           0      0.00%    100.00% |           0      0.00%    100.00% |           0      0.00%    100.00% |           0      0.00%    100.00% |           0      0.00%    100.00% |           0      0.00%    100.00% |           0      0.00%    100.00%
system.ruby.SimicsNetworkPortInterface_Controller.MessageSend::total      2596850                      
system.ruby.SimicsNetworkPortInterface_Controller.MessageRecv |      511624     19.70%     19.70% |     1298425     50.00%     69.70% |       96769      3.73%     73.43% |      106011      4.08%     77.51% |       94735      3.65%     81.16% |      106449      4.10%     85.26% |      100337      3.86%     89.12% |      100290      3.86%     92.98% |       89701      3.45%     96.44% |       92509      3.56%    100.00% |           0      0.00%    100.00% |           0      0.00%    100.00% |           0      0.00%    100.00% |           0      0.00%    100.00% |           0      0.00%    100.00% |           0      0.00%    100.00% |           0      0.00%    100.00% |           0      0.00%    100.00% |           0      0.00%    100.00% |           0      0.00%    100.00% |           0      0.00%    100.00% |           0      0.00%    100.00% |           0      0.00%    100.00% |           0      0.00%    100.00% |           0      0.00%    100.00% |           0      0.00%    100.00% |           0      0.00%    100.00% |           0      0.00%    100.00% |           0      0.00%    100.00% |           0      0.00%    100.00% |           0      0.00%    100.00% |           0      0.00%    100.00%
system.ruby.SimicsNetworkPortInterface_Controller.MessageRecv::total      2596850                      
system.ruby.SimicsNetworkPortInterface_Controller.A.MessageSend |      511624     19.70%     19.70% |     1298425     50.00%     69.70% |       96769      3.73%     73.43% |      106011      4.08%     77.51% |       94735      3.65%     81.16% |      106449      4.10%     85.26% |      100337      3.86%     89.12% |      100290      3.86%     92.98% |       89701      3.45%     96.44% |       92509      3.56%    100.00% |           0      0.00%    100.00% |           0      0.00%    100.00% |           0      0.00%    100.00% |           0      0.00%    100.00% |           0      0.00%    100.00% |           0      0.00%    100.00% |           0      0.00%    100.00% |           0      0.00%    100.00% |           0      0.00%    100.00% |           0      0.00%    100.00% |           0      0.00%    100.00% |           0      0.00%    100.00% |           0      0.00%    100.00% |           0      0.00%    100.00% |           0      0.00%    100.00% |           0      0.00%    100.00% |           0      0.00%    100.00% |           0      0.00%    100.00% |           0      0.00%    100.00% |           0      0.00%    100.00% |           0      0.00%    100.00% |           0      0.00%    100.00%
system.ruby.SimicsNetworkPortInterface_Controller.A.MessageSend::total      2596850                      
system.ruby.SimicsNetworkPortInterface_Controller.A.MessageRecv |      511624     19.70%     19.70% |     1298425     50.00%     69.70% |       96769      3.73%     73.43% |      106011      4.08%     77.51% |       94735      3.65%     81.16% |      106449      4.10%     85.26% |      100337      3.86%     89.12% |      100290      3.86%     92.98% |       89701      3.45%     96.44% |       92509      3.56%    100.00% |           0      0.00%    100.00% |           0      0.00%    100.00% |           0      0.00%    100.00% |           0      0.00%    100.00% |           0      0.00%    100.00% |           0      0.00%    100.00% |           0      0.00%    100.00% |           0      0.00%    100.00% |           0      0.00%    100.00% |           0      0.00%    100.00% |           0      0.00%    100.00% |           0      0.00%    100.00% |           0      0.00%    100.00% |           0      0.00%    100.00% |           0      0.00%    100.00% |           0      0.00%    100.00% |           0      0.00%    100.00% |           0      0.00%    100.00% |           0      0.00%    100.00% |           0      0.00%    100.00% |           0      0.00%    100.00% |           0      0.00%    100.00%
system.ruby.SimicsNetworkPortInterface_Controller.A.MessageRecv::total      2596850                      
system.switch_cpus.kern.inst.arm                    0                       # number of arm instructions executed
system.switch_cpus.kern.inst.quiesce                0                       # number of quiesce instructions executed

---------- End Simulation Statistics   ----------
