
---------- Begin Simulation Statistics ----------
sim_seconds                                  0.039099                       # Number of seconds simulated
sim_ticks                                 39098809000                       # Number of ticks simulated
final_tick                               5215266887500                       # Number of ticks from beginning of simulation (restored from checkpoints and never reset)
sim_freq                                 1000000000000                       # Frequency of simulated ticks
host_inst_rate                                  50717                       # Simulator instruction rate (inst/s)
host_op_rate                                    89105                       # Simulator op (including micro ops) rate (op/s)
host_tick_rate                              107096814                       # Simulator tick rate (ticks/s)
host_mem_usage                                3220708                       # Number of bytes of host memory used
host_seconds                                   365.08                       # Real time elapsed on the host
sim_insts                                    18515639                       # Number of instructions simulated
sim_ops                                      32530279                       # Number of ops (including micro ops) simulated
system.voltage_domain.voltage                       1                       # Voltage in Volts
system.clk_domain.clock                           500                       # Clock period in ticks
system.mem_ctrls0.bytes_read::ruby.dir_cntrl0      4688768                       # Number of bytes read from this memory
system.mem_ctrls0.bytes_read::total           4688768                       # Number of bytes read from this memory
system.mem_ctrls0.bytes_written::ruby.dir_cntrl0      2862144                       # Number of bytes written to this memory
system.mem_ctrls0.bytes_written::total        2862144                       # Number of bytes written to this memory
system.mem_ctrls0.num_reads::ruby.dir_cntrl0        73262                       # Number of read requests responded to by this memory
system.mem_ctrls0.num_reads::total              73262                       # Number of read requests responded to by this memory
system.mem_ctrls0.num_writes::ruby.dir_cntrl0        44721                       # Number of write requests responded to by this memory
system.mem_ctrls0.num_writes::total             44721                       # Number of write requests responded to by this memory
system.mem_ctrls0.bw_read::ruby.dir_cntrl0    119920993                       # Total read bandwidth from this memory (bytes/s)
system.mem_ctrls0.bw_read::total            119920993                       # Total read bandwidth from this memory (bytes/s)
system.mem_ctrls0.bw_write::ruby.dir_cntrl0     73202844                       # Write bandwidth from this memory (bytes/s)
system.mem_ctrls0.bw_write::total            73202844                       # Write bandwidth from this memory (bytes/s)
system.mem_ctrls0.bw_total::ruby.dir_cntrl0    193123837                       # Total bandwidth to/from this memory (bytes/s)
system.mem_ctrls0.bw_total::total           193123837                       # Total bandwidth to/from this memory (bytes/s)
system.mem_ctrls0.readReqs                      73262                       # Number of read requests accepted
system.mem_ctrls0.writeReqs                     44721                       # Number of write requests accepted
system.mem_ctrls0.readBursts                    73262                       # Number of DRAM read bursts, including those serviced by the write queue
system.mem_ctrls0.writeBursts                   44721                       # Number of DRAM write bursts, including those merged in the write queue
system.mem_ctrls0.bytesReadDRAM               4687872                       # Total number of bytes read from DRAM
system.mem_ctrls0.bytesReadWrQ                    896                       # Total number of bytes read from write queue
system.mem_ctrls0.bytesWritten                2862016                       # Total number of bytes written to DRAM
system.mem_ctrls0.bytesReadSys                4688768                       # Total read bytes from the system interface side
system.mem_ctrls0.bytesWrittenSys             2862144                       # Total written bytes from the system interface side
system.mem_ctrls0.servicedByWrQ                    14                       # Number of DRAM read bursts serviced by the write queue
system.mem_ctrls0.mergedWrBursts                    0                       # Number of DRAM write bursts merged with an existing one
system.mem_ctrls0.neitherReadNorWriteReqs            0                       # Number of requests that are neither read nor write
system.mem_ctrls0.perBankRdBursts::0             4426                       # Per bank write bursts
system.mem_ctrls0.perBankRdBursts::1             4891                       # Per bank write bursts
system.mem_ctrls0.perBankRdBursts::2             4541                       # Per bank write bursts
system.mem_ctrls0.perBankRdBursts::3             4886                       # Per bank write bursts
system.mem_ctrls0.perBankRdBursts::4             4634                       # Per bank write bursts
system.mem_ctrls0.perBankRdBursts::5             4726                       # Per bank write bursts
system.mem_ctrls0.perBankRdBursts::6             4552                       # Per bank write bursts
system.mem_ctrls0.perBankRdBursts::7             4522                       # Per bank write bursts
system.mem_ctrls0.perBankRdBursts::8             4505                       # Per bank write bursts
system.mem_ctrls0.perBankRdBursts::9             4793                       # Per bank write bursts
system.mem_ctrls0.perBankRdBursts::10            4517                       # Per bank write bursts
system.mem_ctrls0.perBankRdBursts::11            4732                       # Per bank write bursts
system.mem_ctrls0.perBankRdBursts::12            4351                       # Per bank write bursts
system.mem_ctrls0.perBankRdBursts::13            4197                       # Per bank write bursts
system.mem_ctrls0.perBankRdBursts::14            4469                       # Per bank write bursts
system.mem_ctrls0.perBankRdBursts::15            4506                       # Per bank write bursts
system.mem_ctrls0.perBankWrBursts::0             2818                       # Per bank write bursts
system.mem_ctrls0.perBankWrBursts::1             2810                       # Per bank write bursts
system.mem_ctrls0.perBankWrBursts::2             2793                       # Per bank write bursts
system.mem_ctrls0.perBankWrBursts::3             2882                       # Per bank write bursts
system.mem_ctrls0.perBankWrBursts::4             2801                       # Per bank write bursts
system.mem_ctrls0.perBankWrBursts::5             2939                       # Per bank write bursts
system.mem_ctrls0.perBankWrBursts::6             2769                       # Per bank write bursts
system.mem_ctrls0.perBankWrBursts::7             2846                       # Per bank write bursts
system.mem_ctrls0.perBankWrBursts::8             2739                       # Per bank write bursts
system.mem_ctrls0.perBankWrBursts::9             2919                       # Per bank write bursts
system.mem_ctrls0.perBankWrBursts::10            2766                       # Per bank write bursts
system.mem_ctrls0.perBankWrBursts::11            2698                       # Per bank write bursts
system.mem_ctrls0.perBankWrBursts::12            2633                       # Per bank write bursts
system.mem_ctrls0.perBankWrBursts::13            2669                       # Per bank write bursts
system.mem_ctrls0.perBankWrBursts::14            2876                       # Per bank write bursts
system.mem_ctrls0.perBankWrBursts::15            2761                       # Per bank write bursts
system.mem_ctrls0.numRdRetry                        0                       # Number of times read queue was full causing retry
system.mem_ctrls0.numWrRetry                      812                       # Number of times write queue was full causing retry
system.mem_ctrls0.totGap                  39098296500                       # Total gap between requests
system.mem_ctrls0.readPktSize::0                    0                       # Read request sizes (log2)
system.mem_ctrls0.readPktSize::1                    0                       # Read request sizes (log2)
system.mem_ctrls0.readPktSize::2                    0                       # Read request sizes (log2)
system.mem_ctrls0.readPktSize::3                    0                       # Read request sizes (log2)
system.mem_ctrls0.readPktSize::4                    0                       # Read request sizes (log2)
system.mem_ctrls0.readPktSize::5                    0                       # Read request sizes (log2)
system.mem_ctrls0.readPktSize::6                73262                       # Read request sizes (log2)
system.mem_ctrls0.writePktSize::0                   0                       # Write request sizes (log2)
system.mem_ctrls0.writePktSize::1                   0                       # Write request sizes (log2)
system.mem_ctrls0.writePktSize::2                   0                       # Write request sizes (log2)
system.mem_ctrls0.writePktSize::3                   0                       # Write request sizes (log2)
system.mem_ctrls0.writePktSize::4                   0                       # Write request sizes (log2)
system.mem_ctrls0.writePktSize::5                   0                       # Write request sizes (log2)
system.mem_ctrls0.writePktSize::6               44721                       # Write request sizes (log2)
system.mem_ctrls0.rdQLenPdf::0                  48964                       # What read queue length does an incoming req see
system.mem_ctrls0.rdQLenPdf::1                   6648                       # What read queue length does an incoming req see
system.mem_ctrls0.rdQLenPdf::2                   5046                       # What read queue length does an incoming req see
system.mem_ctrls0.rdQLenPdf::3                   3268                       # What read queue length does an incoming req see
system.mem_ctrls0.rdQLenPdf::4                   2239                       # What read queue length does an incoming req see
system.mem_ctrls0.rdQLenPdf::5                   1579                       # What read queue length does an incoming req see
system.mem_ctrls0.rdQLenPdf::6                   1192                       # What read queue length does an incoming req see
system.mem_ctrls0.rdQLenPdf::7                    933                       # What read queue length does an incoming req see
system.mem_ctrls0.rdQLenPdf::8                    716                       # What read queue length does an incoming req see
system.mem_ctrls0.rdQLenPdf::9                    544                       # What read queue length does an incoming req see
system.mem_ctrls0.rdQLenPdf::10                   458                       # What read queue length does an incoming req see
system.mem_ctrls0.rdQLenPdf::11                   364                       # What read queue length does an incoming req see
system.mem_ctrls0.rdQLenPdf::12                   300                       # What read queue length does an incoming req see
system.mem_ctrls0.rdQLenPdf::13                   239                       # What read queue length does an incoming req see
system.mem_ctrls0.rdQLenPdf::14                   186                       # What read queue length does an incoming req see
system.mem_ctrls0.rdQLenPdf::15                   154                       # What read queue length does an incoming req see
system.mem_ctrls0.rdQLenPdf::16                   118                       # What read queue length does an incoming req see
system.mem_ctrls0.rdQLenPdf::17                    99                       # What read queue length does an incoming req see
system.mem_ctrls0.rdQLenPdf::18                    74                       # What read queue length does an incoming req see
system.mem_ctrls0.rdQLenPdf::19                    53                       # What read queue length does an incoming req see
system.mem_ctrls0.rdQLenPdf::20                    36                       # What read queue length does an incoming req see
system.mem_ctrls0.rdQLenPdf::21                    23                       # What read queue length does an incoming req see
system.mem_ctrls0.rdQLenPdf::22                     9                       # What read queue length does an incoming req see
system.mem_ctrls0.rdQLenPdf::23                     4                       # What read queue length does an incoming req see
system.mem_ctrls0.rdQLenPdf::24                     2                       # What read queue length does an incoming req see
system.mem_ctrls0.rdQLenPdf::25                     0                       # What read queue length does an incoming req see
system.mem_ctrls0.rdQLenPdf::26                     0                       # What read queue length does an incoming req see
system.mem_ctrls0.rdQLenPdf::27                     0                       # What read queue length does an incoming req see
system.mem_ctrls0.rdQLenPdf::28                     0                       # What read queue length does an incoming req see
system.mem_ctrls0.rdQLenPdf::29                     0                       # What read queue length does an incoming req see
system.mem_ctrls0.rdQLenPdf::30                     0                       # What read queue length does an incoming req see
system.mem_ctrls0.rdQLenPdf::31                     0                       # What read queue length does an incoming req see
system.mem_ctrls0.wrQLenPdf::0                   8005                       # What write queue length does an incoming req see
system.mem_ctrls0.wrQLenPdf::1                   8306                       # What write queue length does an incoming req see
system.mem_ctrls0.wrQLenPdf::2                   8532                       # What write queue length does an incoming req see
system.mem_ctrls0.wrQLenPdf::3                   8651                       # What write queue length does an incoming req see
system.mem_ctrls0.wrQLenPdf::4                   8693                       # What write queue length does an incoming req see
system.mem_ctrls0.wrQLenPdf::5                    738                       # What write queue length does an incoming req see
system.mem_ctrls0.wrQLenPdf::6                    560                       # What write queue length does an incoming req see
system.mem_ctrls0.wrQLenPdf::7                   1236                       # What write queue length does an incoming req see
system.mem_ctrls0.bytesPerActivate::samples        32484                       # Bytes accessed per row activation
system.mem_ctrls0.bytesPerActivate::mean   232.389115                       # Bytes accessed per row activation
system.mem_ctrls0.bytesPerActivate::gmean   157.447403                       # Bytes accessed per row activation
system.mem_ctrls0.bytesPerActivate::stdev   231.746565                       # Bytes accessed per row activation
system.mem_ctrls0.bytesPerActivate::0-127        12649     38.94%     38.94% # Bytes accessed per row activation
system.mem_ctrls0.bytesPerActivate::128-255         7115     21.90%     60.84% # Bytes accessed per row activation
system.mem_ctrls0.bytesPerActivate::256-383         8273     25.47%     86.31% # Bytes accessed per row activation
system.mem_ctrls0.bytesPerActivate::384-511         1116      3.44%     89.75% # Bytes accessed per row activation
system.mem_ctrls0.bytesPerActivate::512-639          782      2.41%     92.15% # Bytes accessed per row activation
system.mem_ctrls0.bytesPerActivate::640-767          552      1.70%     93.85% # Bytes accessed per row activation
system.mem_ctrls0.bytesPerActivate::768-895          400      1.23%     95.08% # Bytes accessed per row activation
system.mem_ctrls0.bytesPerActivate::896-1023          417      1.28%     96.37% # Bytes accessed per row activation
system.mem_ctrls0.bytesPerActivate::1024-1151         1180      3.63%    100.00% # Bytes accessed per row activation
system.mem_ctrls0.bytesPerActivate::total        32484                       # Bytes accessed per row activation
system.mem_ctrls0.rdPerTurnAround::samples         8117                       # Reads before turning the bus around for writes
system.mem_ctrls0.rdPerTurnAround::mean      9.021929                       # Reads before turning the bus around for writes
system.mem_ctrls0.rdPerTurnAround::stdev    45.443291                       # Reads before turning the bus around for writes
system.mem_ctrls0.rdPerTurnAround::0-127         8109     99.90%     99.90% # Reads before turning the bus around for writes
system.mem_ctrls0.rdPerTurnAround::128-255            7      0.09%     99.99% # Reads before turning the bus around for writes
system.mem_ctrls0.rdPerTurnAround::3968-4095            1      0.01%    100.00% # Reads before turning the bus around for writes
system.mem_ctrls0.rdPerTurnAround::total         8117                       # Reads before turning the bus around for writes
system.mem_ctrls0.wrPerTurnAround::samples         8117                       # Writes before turning the bus around for reads
system.mem_ctrls0.wrPerTurnAround::mean      5.509301                       # Writes before turning the bus around for reads
system.mem_ctrls0.wrPerTurnAround::gmean     5.334281                       # Writes before turning the bus around for reads
system.mem_ctrls0.wrPerTurnAround::stdev     1.897657                       # Writes before turning the bus around for reads
system.mem_ctrls0.wrPerTurnAround::4-7           7645     94.19%     94.19% # Writes before turning the bus around for reads
system.mem_ctrls0.wrPerTurnAround::8-11           193      2.38%     96.56% # Writes before turning the bus around for reads
system.mem_ctrls0.wrPerTurnAround::12-15          141      1.74%     98.30% # Writes before turning the bus around for reads
system.mem_ctrls0.wrPerTurnAround::16-19          138      1.70%    100.00% # Writes before turning the bus around for reads
system.mem_ctrls0.wrPerTurnAround::total         8117                       # Writes before turning the bus around for reads
system.mem_ctrls0.totQLat                  2099230621                       # Total ticks spent queuing
system.mem_ctrls0.totMemAccLat             3472630621                       # Total ticks spent from burst creation until serviced by the DRAM
system.mem_ctrls0.totBusLat                 366240000                       # Total ticks spent in databus transfers
system.mem_ctrls0.avgQLat                    28659.22                       # Average queueing delay per DRAM burst
system.mem_ctrls0.avgBusLat                   5000.00                       # Average bus latency per DRAM burst
system.mem_ctrls0.avgMemAccLat               47409.22                       # Average memory access latency per DRAM burst
system.mem_ctrls0.avgRdBW                      119.90                       # Average DRAM read bandwidth in MiByte/s
system.mem_ctrls0.avgWrBW                       73.20                       # Average achieved write bandwidth in MiByte/s
system.mem_ctrls0.avgRdBWSys                   119.92                       # Average system read bandwidth in MiByte/s
system.mem_ctrls0.avgWrBWSys                    73.20                       # Average system write bandwidth in MiByte/s
system.mem_ctrls0.peakBW                     12800.00                       # Theoretical peak bandwidth in MiByte/s
system.mem_ctrls0.busUtil                        1.51                       # Data bus utilization in percentage
system.mem_ctrls0.busUtilRead                    0.94                       # Data bus utilization in percentage for reads
system.mem_ctrls0.busUtilWrite                   0.57                       # Data bus utilization in percentage for writes
system.mem_ctrls0.avgRdQLen                      1.09                       # Average read queue length when enqueuing
system.mem_ctrls0.avgWrQLen                      2.87                       # Average write queue length when enqueuing
system.mem_ctrls0.readRowHits                   56088                       # Number of row buffer hits during reads
system.mem_ctrls0.writeRowHits                  29386                       # Number of row buffer hits during writes
system.mem_ctrls0.readRowHitRate                76.57                       # Row buffer hit rate for reads
system.mem_ctrls0.writeRowHitRate               65.71                       # Row buffer hit rate for writes
system.mem_ctrls0.avgGap                    331389.24                       # Average gap between requests
system.mem_ctrls0.pageHitRate                   72.45                       # Row buffer hit rate, read and write combined
system.mem_ctrls0.memoryStateTime::IDLE   10430042500                       # Time in different power states
system.mem_ctrls0.memoryStateTime::REF     1305460000                       # Time in different power states
system.mem_ctrls0.memoryStateTime::PRE_PDN            0                       # Time in different power states
system.mem_ctrls0.memoryStateTime::ACT    27359878000                       # Time in different power states
system.mem_ctrls0.memoryStateTime::ACT_PDN            0                       # Time in different power states
system.mem_ctrls0.actEnergy::0              127053360                       # Energy for activate commands per rank (pJ)
system.mem_ctrls0.actEnergy::1              118480320                       # Energy for activate commands per rank (pJ)
system.mem_ctrls0.preEnergy::0               69324750                       # Energy for precharge commands per rank (pJ)
system.mem_ctrls0.preEnergy::1               64647000                       # Energy for precharge commands per rank (pJ)
system.mem_ctrls0.readEnergy::0             289926000                       # Energy for read commands per rank (pJ)
system.mem_ctrls0.readEnergy::1             281244600                       # Energy for read commands per rank (pJ)
system.mem_ctrls0.writeEnergy::0            146791440                       # Energy for write commands per rank (pJ)
system.mem_ctrls0.writeEnergy::1            142955280                       # Energy for write commands per rank (pJ)
system.mem_ctrls0.refreshEnergy::0         2553479760                       # Energy for refresh commands per rank (pJ)
system.mem_ctrls0.refreshEnergy::1         2553479760                       # Energy for refresh commands per rank (pJ)
system.mem_ctrls0.actBackEnergy::0        14303722500                       # Energy for active background per rank (pJ)
system.mem_ctrls0.actBackEnergy::1        13935029400                       # Energy for active background per rank (pJ)
system.mem_ctrls0.preBackEnergy::0        10909887750                       # Energy for precharge background per rank (pJ)
system.mem_ctrls0.preBackEnergy::1        11233302750                       # Energy for precharge background per rank (pJ)
system.mem_ctrls0.totalEnergy::0          28400185560                       # Total energy per rank (pJ)
system.mem_ctrls0.totalEnergy::1          28329139110                       # Total energy per rank (pJ)
system.mem_ctrls0.averagePower::0          726.439957                       # Core power per rank (mW)
system.mem_ctrls0.averagePower::1          724.622681                       # Core power per rank (mW)
system.mem_ctrls1.bytes_read::ruby.dir_cntrl1      4564288                       # Number of bytes read from this memory
system.mem_ctrls1.bytes_read::total           4564288                       # Number of bytes read from this memory
system.mem_ctrls1.bytes_written::ruby.dir_cntrl1      2746624                       # Number of bytes written to this memory
system.mem_ctrls1.bytes_written::total        2746624                       # Number of bytes written to this memory
system.mem_ctrls1.num_reads::ruby.dir_cntrl1        71317                       # Number of read requests responded to by this memory
system.mem_ctrls1.num_reads::total              71317                       # Number of read requests responded to by this memory
system.mem_ctrls1.num_writes::ruby.dir_cntrl1        42916                       # Number of write requests responded to by this memory
system.mem_ctrls1.num_writes::total             42916                       # Number of write requests responded to by this memory
system.mem_ctrls1.bw_read::ruby.dir_cntrl1    116737264                       # Total read bandwidth from this memory (bytes/s)
system.mem_ctrls1.bw_read::total            116737264                       # Total read bandwidth from this memory (bytes/s)
system.mem_ctrls1.bw_write::ruby.dir_cntrl1     70248278                       # Write bandwidth from this memory (bytes/s)
system.mem_ctrls1.bw_write::total            70248278                       # Write bandwidth from this memory (bytes/s)
system.mem_ctrls1.bw_total::ruby.dir_cntrl1    186985542                       # Total bandwidth to/from this memory (bytes/s)
system.mem_ctrls1.bw_total::total           186985542                       # Total bandwidth to/from this memory (bytes/s)
system.mem_ctrls1.readReqs                      71317                       # Number of read requests accepted
system.mem_ctrls1.writeReqs                     42916                       # Number of write requests accepted
system.mem_ctrls1.readBursts                    71317                       # Number of DRAM read bursts, including those serviced by the write queue
system.mem_ctrls1.writeBursts                   42916                       # Number of DRAM write bursts, including those merged in the write queue
system.mem_ctrls1.bytesReadDRAM               4563264                       # Total number of bytes read from DRAM
system.mem_ctrls1.bytesReadWrQ                   1024                       # Total number of bytes read from write queue
system.mem_ctrls1.bytesWritten                2746624                       # Total number of bytes written to DRAM
system.mem_ctrls1.bytesReadSys                4564288                       # Total read bytes from the system interface side
system.mem_ctrls1.bytesWrittenSys             2746624                       # Total written bytes from the system interface side
system.mem_ctrls1.servicedByWrQ                    16                       # Number of DRAM read bursts serviced by the write queue
system.mem_ctrls1.mergedWrBursts                    0                       # Number of DRAM write bursts merged with an existing one
system.mem_ctrls1.neitherReadNorWriteReqs            0                       # Number of requests that are neither read nor write
system.mem_ctrls1.perBankRdBursts::0             4309                       # Per bank write bursts
system.mem_ctrls1.perBankRdBursts::1             4752                       # Per bank write bursts
system.mem_ctrls1.perBankRdBursts::2             4420                       # Per bank write bursts
system.mem_ctrls1.perBankRdBursts::3             4767                       # Per bank write bursts
system.mem_ctrls1.perBankRdBursts::4             4524                       # Per bank write bursts
system.mem_ctrls1.perBankRdBursts::5             4631                       # Per bank write bursts
system.mem_ctrls1.perBankRdBursts::6             4426                       # Per bank write bursts
system.mem_ctrls1.perBankRdBursts::7             4426                       # Per bank write bursts
system.mem_ctrls1.perBankRdBursts::8             4376                       # Per bank write bursts
system.mem_ctrls1.perBankRdBursts::9             4671                       # Per bank write bursts
system.mem_ctrls1.perBankRdBursts::10            4400                       # Per bank write bursts
system.mem_ctrls1.perBankRdBursts::11            4614                       # Per bank write bursts
system.mem_ctrls1.perBankRdBursts::12            4228                       # Per bank write bursts
system.mem_ctrls1.perBankRdBursts::13            4084                       # Per bank write bursts
system.mem_ctrls1.perBankRdBursts::14            4274                       # Per bank write bursts
system.mem_ctrls1.perBankRdBursts::15            4399                       # Per bank write bursts
system.mem_ctrls1.perBankWrBursts::0             2710                       # Per bank write bursts
system.mem_ctrls1.perBankWrBursts::1             2714                       # Per bank write bursts
system.mem_ctrls1.perBankWrBursts::2             2691                       # Per bank write bursts
system.mem_ctrls1.perBankWrBursts::3             2773                       # Per bank write bursts
system.mem_ctrls1.perBankWrBursts::4             2699                       # Per bank write bursts
system.mem_ctrls1.perBankWrBursts::5             2832                       # Per bank write bursts
system.mem_ctrls1.perBankWrBursts::6             2643                       # Per bank write bursts
system.mem_ctrls1.perBankWrBursts::7             2732                       # Per bank write bursts
system.mem_ctrls1.perBankWrBursts::8             2629                       # Per bank write bursts
system.mem_ctrls1.perBankWrBursts::9             2805                       # Per bank write bursts
system.mem_ctrls1.perBankWrBursts::10            2661                       # Per bank write bursts
system.mem_ctrls1.perBankWrBursts::11            2586                       # Per bank write bursts
system.mem_ctrls1.perBankWrBursts::12            2528                       # Per bank write bursts
system.mem_ctrls1.perBankWrBursts::13            2553                       # Per bank write bursts
system.mem_ctrls1.perBankWrBursts::14            2708                       # Per bank write bursts
system.mem_ctrls1.perBankWrBursts::15            2652                       # Per bank write bursts
system.mem_ctrls1.numRdRetry                        0                       # Number of times read queue was full causing retry
system.mem_ctrls1.numWrRetry                      984                       # Number of times write queue was full causing retry
system.mem_ctrls1.totGap                  39098044500                       # Total gap between requests
system.mem_ctrls1.readPktSize::0                    0                       # Read request sizes (log2)
system.mem_ctrls1.readPktSize::1                    0                       # Read request sizes (log2)
system.mem_ctrls1.readPktSize::2                    0                       # Read request sizes (log2)
system.mem_ctrls1.readPktSize::3                    0                       # Read request sizes (log2)
system.mem_ctrls1.readPktSize::4                    0                       # Read request sizes (log2)
system.mem_ctrls1.readPktSize::5                    0                       # Read request sizes (log2)
system.mem_ctrls1.readPktSize::6                71317                       # Read request sizes (log2)
system.mem_ctrls1.writePktSize::0                   0                       # Write request sizes (log2)
system.mem_ctrls1.writePktSize::1                   0                       # Write request sizes (log2)
system.mem_ctrls1.writePktSize::2                   0                       # Write request sizes (log2)
system.mem_ctrls1.writePktSize::3                   0                       # Write request sizes (log2)
system.mem_ctrls1.writePktSize::4                   0                       # Write request sizes (log2)
system.mem_ctrls1.writePktSize::5                   0                       # Write request sizes (log2)
system.mem_ctrls1.writePktSize::6               42916                       # Write request sizes (log2)
system.mem_ctrls1.rdQLenPdf::0                  47884                       # What read queue length does an incoming req see
system.mem_ctrls1.rdQLenPdf::1                   6225                       # What read queue length does an incoming req see
system.mem_ctrls1.rdQLenPdf::2                   4721                       # What read queue length does an incoming req see
system.mem_ctrls1.rdQLenPdf::3                   3176                       # What read queue length does an incoming req see
system.mem_ctrls1.rdQLenPdf::4                   2333                       # What read queue length does an incoming req see
system.mem_ctrls1.rdQLenPdf::5                   1631                       # What read queue length does an incoming req see
system.mem_ctrls1.rdQLenPdf::6                   1179                       # What read queue length does an incoming req see
system.mem_ctrls1.rdQLenPdf::7                    899                       # What read queue length does an incoming req see
system.mem_ctrls1.rdQLenPdf::8                    656                       # What read queue length does an incoming req see
system.mem_ctrls1.rdQLenPdf::9                    503                       # What read queue length does an incoming req see
system.mem_ctrls1.rdQLenPdf::10                   414                       # What read queue length does an incoming req see
system.mem_ctrls1.rdQLenPdf::11                   313                       # What read queue length does an incoming req see
system.mem_ctrls1.rdQLenPdf::12                   292                       # What read queue length does an incoming req see
system.mem_ctrls1.rdQLenPdf::13                   232                       # What read queue length does an incoming req see
system.mem_ctrls1.rdQLenPdf::14                   202                       # What read queue length does an incoming req see
system.mem_ctrls1.rdQLenPdf::15                   160                       # What read queue length does an incoming req see
system.mem_ctrls1.rdQLenPdf::16                   136                       # What read queue length does an incoming req see
system.mem_ctrls1.rdQLenPdf::17                   106                       # What read queue length does an incoming req see
system.mem_ctrls1.rdQLenPdf::18                    85                       # What read queue length does an incoming req see
system.mem_ctrls1.rdQLenPdf::19                    69                       # What read queue length does an incoming req see
system.mem_ctrls1.rdQLenPdf::20                    42                       # What read queue length does an incoming req see
system.mem_ctrls1.rdQLenPdf::21                    26                       # What read queue length does an incoming req see
system.mem_ctrls1.rdQLenPdf::22                    16                       # What read queue length does an incoming req see
system.mem_ctrls1.rdQLenPdf::23                     1                       # What read queue length does an incoming req see
system.mem_ctrls1.rdQLenPdf::24                     0                       # What read queue length does an incoming req see
system.mem_ctrls1.rdQLenPdf::25                     0                       # What read queue length does an incoming req see
system.mem_ctrls1.rdQLenPdf::26                     0                       # What read queue length does an incoming req see
system.mem_ctrls1.rdQLenPdf::27                     0                       # What read queue length does an incoming req see
system.mem_ctrls1.rdQLenPdf::28                     0                       # What read queue length does an incoming req see
system.mem_ctrls1.rdQLenPdf::29                     0                       # What read queue length does an incoming req see
system.mem_ctrls1.rdQLenPdf::30                     0                       # What read queue length does an incoming req see
system.mem_ctrls1.rdQLenPdf::31                     0                       # What read queue length does an incoming req see
system.mem_ctrls1.wrQLenPdf::0                   7658                       # What write queue length does an incoming req see
system.mem_ctrls1.wrQLenPdf::1                   7934                       # What write queue length does an incoming req see
system.mem_ctrls1.wrQLenPdf::2                   8140                       # What write queue length does an incoming req see
system.mem_ctrls1.wrQLenPdf::3                   8250                       # What write queue length does an incoming req see
system.mem_ctrls1.wrQLenPdf::4                   8337                       # What write queue length does an incoming req see
system.mem_ctrls1.wrQLenPdf::5                    665                       # What write queue length does an incoming req see
system.mem_ctrls1.wrQLenPdf::6                    548                       # What write queue length does an incoming req see
system.mem_ctrls1.wrQLenPdf::7                   1384                       # What write queue length does an incoming req see
system.mem_ctrls1.bytesPerActivate::samples        28537                       # Bytes accessed per row activation
system.mem_ctrls1.bytesPerActivate::mean   256.127834                       # Bytes accessed per row activation
system.mem_ctrls1.bytesPerActivate::gmean   176.641566                       # Bytes accessed per row activation
system.mem_ctrls1.bytesPerActivate::stdev   240.319574                       # Bytes accessed per row activation
system.mem_ctrls1.bytesPerActivate::0-127         9260     32.45%     32.45% # Bytes accessed per row activation
system.mem_ctrls1.bytesPerActivate::128-255         6417     22.49%     54.94% # Bytes accessed per row activation
system.mem_ctrls1.bytesPerActivate::256-383         8247     28.90%     83.84% # Bytes accessed per row activation
system.mem_ctrls1.bytesPerActivate::384-511         1232      4.32%     88.15% # Bytes accessed per row activation
system.mem_ctrls1.bytesPerActivate::512-639          806      2.82%     90.98% # Bytes accessed per row activation
system.mem_ctrls1.bytesPerActivate::640-767          510      1.79%     92.76% # Bytes accessed per row activation
system.mem_ctrls1.bytesPerActivate::768-895          452      1.58%     94.35% # Bytes accessed per row activation
system.mem_ctrls1.bytesPerActivate::896-1023          429      1.50%     95.85% # Bytes accessed per row activation
system.mem_ctrls1.bytesPerActivate::1024-1151         1184      4.15%    100.00% # Bytes accessed per row activation
system.mem_ctrls1.bytesPerActivate::total        28537                       # Bytes accessed per row activation
system.mem_ctrls1.rdPerTurnAround::samples         7787                       # Reads before turning the bus around for writes
system.mem_ctrls1.rdPerTurnAround::mean      9.154874                       # Reads before turning the bus around for writes
system.mem_ctrls1.rdPerTurnAround::stdev    36.902756                       # Reads before turning the bus around for writes
system.mem_ctrls1.rdPerTurnAround::0-127         7778     99.88%     99.88% # Reads before turning the bus around for writes
system.mem_ctrls1.rdPerTurnAround::128-255            7      0.09%     99.97% # Reads before turning the bus around for writes
system.mem_ctrls1.rdPerTurnAround::1152-1279            1      0.01%     99.99% # Reads before turning the bus around for writes
system.mem_ctrls1.rdPerTurnAround::2816-2943            1      0.01%    100.00% # Reads before turning the bus around for writes
system.mem_ctrls1.rdPerTurnAround::total         7787                       # Reads before turning the bus around for writes
system.mem_ctrls1.wrPerTurnAround::samples         7787                       # Writes before turning the bus around for reads
system.mem_ctrls1.wrPerTurnAround::mean      5.511237                       # Writes before turning the bus around for reads
system.mem_ctrls1.wrPerTurnAround::gmean     5.330987                       # Writes before turning the bus around for reads
system.mem_ctrls1.wrPerTurnAround::stdev     1.926860                       # Writes before turning the bus around for reads
system.mem_ctrls1.wrPerTurnAround::4-7           7307     93.84%     93.84% # Writes before turning the bus around for reads
system.mem_ctrls1.wrPerTurnAround::8-11           198      2.54%     96.38% # Writes before turning the bus around for reads
system.mem_ctrls1.wrPerTurnAround::12-15          126      1.62%     98.00% # Writes before turning the bus around for reads
system.mem_ctrls1.wrPerTurnAround::16-19          156      2.00%    100.00% # Writes before turning the bus around for reads
system.mem_ctrls1.wrPerTurnAround::total         7787                       # Writes before turning the bus around for reads
system.mem_ctrls1.totQLat                  1979218372                       # Total ticks spent queuing
system.mem_ctrls1.totMemAccLat             3316112122                       # Total ticks spent from burst creation until serviced by the DRAM
system.mem_ctrls1.totBusLat                 356505000                       # Total ticks spent in databus transfers
system.mem_ctrls1.avgQLat                    27758.63                       # Average queueing delay per DRAM burst
system.mem_ctrls1.avgBusLat                   5000.00                       # Average bus latency per DRAM burst
system.mem_ctrls1.avgMemAccLat               46508.63                       # Average memory access latency per DRAM burst
system.mem_ctrls1.avgRdBW                      116.71                       # Average DRAM read bandwidth in MiByte/s
system.mem_ctrls1.avgWrBW                       70.25                       # Average achieved write bandwidth in MiByte/s
system.mem_ctrls1.avgRdBWSys                   116.74                       # Average system read bandwidth in MiByte/s
system.mem_ctrls1.avgWrBWSys                    70.25                       # Average system write bandwidth in MiByte/s
system.mem_ctrls1.peakBW                     12800.00                       # Theoretical peak bandwidth in MiByte/s
system.mem_ctrls1.busUtil                        1.46                       # Data bus utilization in percentage
system.mem_ctrls1.busUtilRead                    0.91                       # Data bus utilization in percentage for reads
system.mem_ctrls1.busUtilWrite                   0.55                       # Data bus utilization in percentage for writes
system.mem_ctrls1.avgRdQLen                      1.09                       # Average read queue length when enqueuing
system.mem_ctrls1.avgWrQLen                      2.86                       # Average write queue length when enqueuing
system.mem_ctrls1.readRowHits                   55772                       # Number of row buffer hits during reads
system.mem_ctrls1.writeRowHits                  29904                       # Number of row buffer hits during writes
system.mem_ctrls1.readRowHitRate                78.22                       # Row buffer hit rate for reads
system.mem_ctrls1.writeRowHitRate               69.68                       # Row buffer hit rate for writes
system.mem_ctrls1.avgGap                    342265.76                       # Average gap between requests
system.mem_ctrls1.pageHitRate                   75.01                       # Row buffer hit rate, read and write combined
system.mem_ctrls1.memoryStateTime::IDLE   10618453000                       # Time in different power states
system.mem_ctrls1.memoryStateTime::REF     1305460000                       # Time in different power states
system.mem_ctrls1.memoryStateTime::PRE_PDN            0                       # Time in different power states
system.mem_ctrls1.memoryStateTime::ACT    27171122000                       # Time in different power states
system.mem_ctrls1.memoryStateTime::ACT_PDN            0                       # Time in different power states
system.mem_ctrls1.actEnergy::0              112530600                       # Energy for activate commands per rank (pJ)
system.mem_ctrls1.actEnergy::1              103178880                       # Energy for activate commands per rank (pJ)
system.mem_ctrls1.preEnergy::0               61400625                       # Energy for precharge commands per rank (pJ)
system.mem_ctrls1.preEnergy::1               56298000                       # Energy for precharge commands per rank (pJ)
system.mem_ctrls1.readEnergy::0             282750000                       # Energy for read commands per rank (pJ)
system.mem_ctrls1.readEnergy::1             273265200                       # Energy for read commands per rank (pJ)
system.mem_ctrls1.writeEnergy::0            141199200                       # Energy for write commands per rank (pJ)
system.mem_ctrls1.writeEnergy::1            136864080                       # Energy for write commands per rank (pJ)
system.mem_ctrls1.refreshEnergy::0         2553479760                       # Energy for refresh commands per rank (pJ)
system.mem_ctrls1.refreshEnergy::1         2553479760                       # Energy for refresh commands per rank (pJ)
system.mem_ctrls1.actBackEnergy::0        14167883520                       # Energy for active background per rank (pJ)
system.mem_ctrls1.actBackEnergy::1        13495529475                       # Energy for active background per rank (pJ)
system.mem_ctrls1.preBackEnergy::0        11029044750                       # Energy for precharge background per rank (pJ)
system.mem_ctrls1.preBackEnergy::1        11618829000                       # Energy for precharge background per rank (pJ)
system.mem_ctrls1.totalEnergy::0          28348288455                       # Total energy per rank (pJ)
system.mem_ctrls1.totalEnergy::1          28237444395                       # Total energy per rank (pJ)
system.mem_ctrls1.averagePower::0          725.112496                       # Core power per rank (mW)
system.mem_ctrls1.averagePower::1          722.277249                       # Core power per rank (mW)
system.mem_ctrls2.bytes_read::ruby.dir_cntrl2      4566656                       # Number of bytes read from this memory
system.mem_ctrls2.bytes_read::total           4566656                       # Number of bytes read from this memory
system.mem_ctrls2.bytes_written::ruby.dir_cntrl2      2748160                       # Number of bytes written to this memory
system.mem_ctrls2.bytes_written::total        2748160                       # Number of bytes written to this memory
system.mem_ctrls2.num_reads::ruby.dir_cntrl2        71354                       # Number of read requests responded to by this memory
system.mem_ctrls2.num_reads::total              71354                       # Number of read requests responded to by this memory
system.mem_ctrls2.num_writes::ruby.dir_cntrl2        42940                       # Number of write requests responded to by this memory
system.mem_ctrls2.num_writes::total             42940                       # Number of write requests responded to by this memory
system.mem_ctrls2.bw_read::ruby.dir_cntrl2    116797829                       # Total read bandwidth from this memory (bytes/s)
system.mem_ctrls2.bw_read::total            116797829                       # Total read bandwidth from this memory (bytes/s)
system.mem_ctrls2.bw_write::ruby.dir_cntrl2     70287563                       # Write bandwidth from this memory (bytes/s)
system.mem_ctrls2.bw_write::total            70287563                       # Write bandwidth from this memory (bytes/s)
system.mem_ctrls2.bw_total::ruby.dir_cntrl2    187085392                       # Total bandwidth to/from this memory (bytes/s)
system.mem_ctrls2.bw_total::total           187085392                       # Total bandwidth to/from this memory (bytes/s)
system.mem_ctrls2.readReqs                      71354                       # Number of read requests accepted
system.mem_ctrls2.writeReqs                     42940                       # Number of write requests accepted
system.mem_ctrls2.readBursts                    71354                       # Number of DRAM read bursts, including those serviced by the write queue
system.mem_ctrls2.writeBursts                   42940                       # Number of DRAM write bursts, including those merged in the write queue
system.mem_ctrls2.bytesReadDRAM               4565632                       # Total number of bytes read from DRAM
system.mem_ctrls2.bytesReadWrQ                   1024                       # Total number of bytes read from write queue
system.mem_ctrls2.bytesWritten                2748096                       # Total number of bytes written to DRAM
system.mem_ctrls2.bytesReadSys                4566656                       # Total read bytes from the system interface side
system.mem_ctrls2.bytesWrittenSys             2748160                       # Total written bytes from the system interface side
system.mem_ctrls2.servicedByWrQ                    16                       # Number of DRAM read bursts serviced by the write queue
system.mem_ctrls2.mergedWrBursts                    0                       # Number of DRAM write bursts merged with an existing one
system.mem_ctrls2.neitherReadNorWriteReqs            0                       # Number of requests that are neither read nor write
system.mem_ctrls2.perBankRdBursts::0             4292                       # Per bank write bursts
system.mem_ctrls2.perBankRdBursts::1             4781                       # Per bank write bursts
system.mem_ctrls2.perBankRdBursts::2             4434                       # Per bank write bursts
system.mem_ctrls2.perBankRdBursts::3             4798                       # Per bank write bursts
system.mem_ctrls2.perBankRdBursts::4             4535                       # Per bank write bursts
system.mem_ctrls2.perBankRdBursts::5             4626                       # Per bank write bursts
system.mem_ctrls2.perBankRdBursts::6             4418                       # Per bank write bursts
system.mem_ctrls2.perBankRdBursts::7             4419                       # Per bank write bursts
system.mem_ctrls2.perBankRdBursts::8             4356                       # Per bank write bursts
system.mem_ctrls2.perBankRdBursts::9             4653                       # Per bank write bursts
system.mem_ctrls2.perBankRdBursts::10            4395                       # Per bank write bursts
system.mem_ctrls2.perBankRdBursts::11            4652                       # Per bank write bursts
system.mem_ctrls2.perBankRdBursts::12            4240                       # Per bank write bursts
system.mem_ctrls2.perBankRdBursts::13            4073                       # Per bank write bursts
system.mem_ctrls2.perBankRdBursts::14            4263                       # Per bank write bursts
system.mem_ctrls2.perBankRdBursts::15            4403                       # Per bank write bursts
system.mem_ctrls2.perBankWrBursts::0             2703                       # Per bank write bursts
system.mem_ctrls2.perBankWrBursts::1             2712                       # Per bank write bursts
system.mem_ctrls2.perBankWrBursts::2             2688                       # Per bank write bursts
system.mem_ctrls2.perBankWrBursts::3             2789                       # Per bank write bursts
system.mem_ctrls2.perBankWrBursts::4             2697                       # Per bank write bursts
system.mem_ctrls2.perBankWrBursts::5             2822                       # Per bank write bursts
system.mem_ctrls2.perBankWrBursts::6             2646                       # Per bank write bursts
system.mem_ctrls2.perBankWrBursts::7             2734                       # Per bank write bursts
system.mem_ctrls2.perBankWrBursts::8             2629                       # Per bank write bursts
system.mem_ctrls2.perBankWrBursts::9             2811                       # Per bank write bursts
system.mem_ctrls2.perBankWrBursts::10            2656                       # Per bank write bursts
system.mem_ctrls2.perBankWrBursts::11            2599                       # Per bank write bursts
system.mem_ctrls2.perBankWrBursts::12            2536                       # Per bank write bursts
system.mem_ctrls2.perBankWrBursts::13            2548                       # Per bank write bursts
system.mem_ctrls2.perBankWrBursts::14            2715                       # Per bank write bursts
system.mem_ctrls2.perBankWrBursts::15            2654                       # Per bank write bursts
system.mem_ctrls2.numRdRetry                        0                       # Number of times read queue was full causing retry
system.mem_ctrls2.numWrRetry                      960                       # Number of times write queue was full causing retry
system.mem_ctrls2.totGap                  39098284000                       # Total gap between requests
system.mem_ctrls2.readPktSize::0                    0                       # Read request sizes (log2)
system.mem_ctrls2.readPktSize::1                    0                       # Read request sizes (log2)
system.mem_ctrls2.readPktSize::2                    0                       # Read request sizes (log2)
system.mem_ctrls2.readPktSize::3                    0                       # Read request sizes (log2)
system.mem_ctrls2.readPktSize::4                    0                       # Read request sizes (log2)
system.mem_ctrls2.readPktSize::5                    0                       # Read request sizes (log2)
system.mem_ctrls2.readPktSize::6                71354                       # Read request sizes (log2)
system.mem_ctrls2.writePktSize::0                   0                       # Write request sizes (log2)
system.mem_ctrls2.writePktSize::1                   0                       # Write request sizes (log2)
system.mem_ctrls2.writePktSize::2                   0                       # Write request sizes (log2)
system.mem_ctrls2.writePktSize::3                   0                       # Write request sizes (log2)
system.mem_ctrls2.writePktSize::4                   0                       # Write request sizes (log2)
system.mem_ctrls2.writePktSize::5                   0                       # Write request sizes (log2)
system.mem_ctrls2.writePktSize::6               42940                       # Write request sizes (log2)
system.mem_ctrls2.rdQLenPdf::0                  48497                       # What read queue length does an incoming req see
system.mem_ctrls2.rdQLenPdf::1                   6119                       # What read queue length does an incoming req see
system.mem_ctrls2.rdQLenPdf::2                   4775                       # What read queue length does an incoming req see
system.mem_ctrls2.rdQLenPdf::3                   3197                       # What read queue length does an incoming req see
system.mem_ctrls2.rdQLenPdf::4                   2228                       # What read queue length does an incoming req see
system.mem_ctrls2.rdQLenPdf::5                   1519                       # What read queue length does an incoming req see
system.mem_ctrls2.rdQLenPdf::6                   1065                       # What read queue length does an incoming req see
system.mem_ctrls2.rdQLenPdf::7                    816                       # What read queue length does an incoming req see
system.mem_ctrls2.rdQLenPdf::8                    641                       # What read queue length does an incoming req see
system.mem_ctrls2.rdQLenPdf::9                    455                       # What read queue length does an incoming req see
system.mem_ctrls2.rdQLenPdf::10                   373                       # What read queue length does an incoming req see
system.mem_ctrls2.rdQLenPdf::11                   298                       # What read queue length does an incoming req see
system.mem_ctrls2.rdQLenPdf::12                   269                       # What read queue length does an incoming req see
system.mem_ctrls2.rdQLenPdf::13                   231                       # What read queue length does an incoming req see
system.mem_ctrls2.rdQLenPdf::14                   192                       # What read queue length does an incoming req see
system.mem_ctrls2.rdQLenPdf::15                   168                       # What read queue length does an incoming req see
system.mem_ctrls2.rdQLenPdf::16                   151                       # What read queue length does an incoming req see
system.mem_ctrls2.rdQLenPdf::17                    98                       # What read queue length does an incoming req see
system.mem_ctrls2.rdQLenPdf::18                    83                       # What read queue length does an incoming req see
system.mem_ctrls2.rdQLenPdf::19                    71                       # What read queue length does an incoming req see
system.mem_ctrls2.rdQLenPdf::20                    50                       # What read queue length does an incoming req see
system.mem_ctrls2.rdQLenPdf::21                    31                       # What read queue length does an incoming req see
system.mem_ctrls2.rdQLenPdf::22                    11                       # What read queue length does an incoming req see
system.mem_ctrls2.rdQLenPdf::23                     0                       # What read queue length does an incoming req see
system.mem_ctrls2.rdQLenPdf::24                     0                       # What read queue length does an incoming req see
system.mem_ctrls2.rdQLenPdf::25                     0                       # What read queue length does an incoming req see
system.mem_ctrls2.rdQLenPdf::26                     0                       # What read queue length does an incoming req see
system.mem_ctrls2.rdQLenPdf::27                     0                       # What read queue length does an incoming req see
system.mem_ctrls2.rdQLenPdf::28                     0                       # What read queue length does an incoming req see
system.mem_ctrls2.rdQLenPdf::29                     0                       # What read queue length does an incoming req see
system.mem_ctrls2.rdQLenPdf::30                     0                       # What read queue length does an incoming req see
system.mem_ctrls2.rdQLenPdf::31                     0                       # What read queue length does an incoming req see
system.mem_ctrls2.wrQLenPdf::0                   7689                       # What write queue length does an incoming req see
system.mem_ctrls2.wrQLenPdf::1                   7947                       # What write queue length does an incoming req see
system.mem_ctrls2.wrQLenPdf::2                   8135                       # What write queue length does an incoming req see
system.mem_ctrls2.wrQLenPdf::3                   8277                       # What write queue length does an incoming req see
system.mem_ctrls2.wrQLenPdf::4                   8354                       # What write queue length does an incoming req see
system.mem_ctrls2.wrQLenPdf::5                    707                       # What write queue length does an incoming req see
system.mem_ctrls2.wrQLenPdf::6                    506                       # What write queue length does an incoming req see
system.mem_ctrls2.wrQLenPdf::7                   1325                       # What write queue length does an incoming req see
system.mem_ctrls2.bytesPerActivate::samples        28592                       # Bytes accessed per row activation
system.mem_ctrls2.bytesPerActivate::mean   255.780638                       # Bytes accessed per row activation
system.mem_ctrls2.bytesPerActivate::gmean   176.914088                       # Bytes accessed per row activation
system.mem_ctrls2.bytesPerActivate::stdev   238.846575                       # Bytes accessed per row activation
system.mem_ctrls2.bytesPerActivate::0-127         9264     32.40%     32.40% # Bytes accessed per row activation
system.mem_ctrls2.bytesPerActivate::128-255         6365     22.26%     54.66% # Bytes accessed per row activation
system.mem_ctrls2.bytesPerActivate::256-383         8416     29.43%     84.10% # Bytes accessed per row activation
system.mem_ctrls2.bytesPerActivate::384-511         1185      4.14%     88.24% # Bytes accessed per row activation
system.mem_ctrls2.bytesPerActivate::512-639          774      2.71%     90.95% # Bytes accessed per row activation
system.mem_ctrls2.bytesPerActivate::640-767          601      2.10%     93.05% # Bytes accessed per row activation
system.mem_ctrls2.bytesPerActivate::768-895          412      1.44%     94.49% # Bytes accessed per row activation
system.mem_ctrls2.bytesPerActivate::896-1023          381      1.33%     95.82% # Bytes accessed per row activation
system.mem_ctrls2.bytesPerActivate::1024-1151         1194      4.18%    100.00% # Bytes accessed per row activation
system.mem_ctrls2.bytesPerActivate::total        28592                       # Bytes accessed per row activation
system.mem_ctrls2.rdPerTurnAround::samples         7808                       # Reads before turning the bus around for writes
system.mem_ctrls2.rdPerTurnAround::mean      9.134477                       # Reads before turning the bus around for writes
system.mem_ctrls2.rdPerTurnAround::stdev    36.954254                       # Reads before turning the bus around for writes
system.mem_ctrls2.rdPerTurnAround::0-127         7802     99.92%     99.92% # Reads before turning the bus around for writes
system.mem_ctrls2.rdPerTurnAround::128-255            4      0.05%     99.97% # Reads before turning the bus around for writes
system.mem_ctrls2.rdPerTurnAround::1152-1279            1      0.01%     99.99% # Reads before turning the bus around for writes
system.mem_ctrls2.rdPerTurnAround::2816-2943            1      0.01%    100.00% # Reads before turning the bus around for writes
system.mem_ctrls2.rdPerTurnAround::total         7808                       # Reads before turning the bus around for writes
system.mem_ctrls2.wrPerTurnAround::samples         7808                       # Writes before turning the bus around for reads
system.mem_ctrls2.wrPerTurnAround::mean      5.499360                       # Writes before turning the bus around for reads
system.mem_ctrls2.wrPerTurnAround::gmean     5.322875                       # Writes before turning the bus around for reads
system.mem_ctrls2.wrPerTurnAround::stdev     1.908164                       # Writes before turning the bus around for reads
system.mem_ctrls2.wrPerTurnAround::4-7           7353     94.17%     94.17% # Writes before turning the bus around for reads
system.mem_ctrls2.wrPerTurnAround::8-11           187      2.39%     96.57% # Writes before turning the bus around for reads
system.mem_ctrls2.wrPerTurnAround::12-15          118      1.51%     98.08% # Writes before turning the bus around for reads
system.mem_ctrls2.wrPerTurnAround::16-19          150      1.92%    100.00% # Writes before turning the bus around for reads
system.mem_ctrls2.wrPerTurnAround::total         7808                       # Writes before turning the bus around for reads
system.mem_ctrls2.totQLat                  1964097138                       # Total ticks spent queuing
system.mem_ctrls2.totMemAccLat             3301684638                       # Total ticks spent from burst creation until serviced by the DRAM
system.mem_ctrls2.totBusLat                 356690000                       # Total ticks spent in databus transfers
system.mem_ctrls2.avgQLat                    27532.27                       # Average queueing delay per DRAM burst
system.mem_ctrls2.avgBusLat                   5000.00                       # Average bus latency per DRAM burst
system.mem_ctrls2.avgMemAccLat               46282.27                       # Average memory access latency per DRAM burst
system.mem_ctrls2.avgRdBW                      116.77                       # Average DRAM read bandwidth in MiByte/s
system.mem_ctrls2.avgWrBW                       70.29                       # Average achieved write bandwidth in MiByte/s
system.mem_ctrls2.avgRdBWSys                   116.80                       # Average system read bandwidth in MiByte/s
system.mem_ctrls2.avgWrBWSys                    70.29                       # Average system write bandwidth in MiByte/s
system.mem_ctrls2.peakBW                     12800.00                       # Theoretical peak bandwidth in MiByte/s
system.mem_ctrls2.busUtil                        1.46                       # Data bus utilization in percentage
system.mem_ctrls2.busUtilRead                    0.91                       # Data bus utilization in percentage for reads
system.mem_ctrls2.busUtilWrite                   0.55                       # Data bus utilization in percentage for writes
system.mem_ctrls2.avgRdQLen                      1.08                       # Average read queue length when enqueuing
system.mem_ctrls2.avgWrQLen                      2.88                       # Average write queue length when enqueuing
system.mem_ctrls2.readRowHits                   55707                       # Number of row buffer hits during reads
system.mem_ctrls2.writeRowHits                  29975                       # Number of row buffer hits during writes
system.mem_ctrls2.readRowHitRate                78.09                       # Row buffer hit rate for reads
system.mem_ctrls2.writeRowHitRate               69.81                       # Row buffer hit rate for writes
system.mem_ctrls2.avgGap                    342085.18                       # Average gap between requests
system.mem_ctrls2.pageHitRate                   74.98                       # Row buffer hit rate, read and write combined
system.mem_ctrls2.memoryStateTime::IDLE   10523933250                       # Time in different power states
system.mem_ctrls2.memoryStateTime::REF     1305460000                       # Time in different power states
system.mem_ctrls2.memoryStateTime::PRE_PDN            0                       # Time in different power states
system.mem_ctrls2.memoryStateTime::ACT    27265845750                       # Time in different power states
system.mem_ctrls2.memoryStateTime::ACT_PDN            0                       # Time in different power states
system.mem_ctrls2.actEnergy::0              112938840                       # Energy for activate commands per rank (pJ)
system.mem_ctrls2.actEnergy::1              103201560                       # Energy for activate commands per rank (pJ)
system.mem_ctrls2.preEnergy::0               61623375                       # Energy for precharge commands per rank (pJ)
system.mem_ctrls2.preEnergy::1               56310375                       # Energy for precharge commands per rank (pJ)
system.mem_ctrls2.readEnergy::0             283132200                       # Energy for read commands per rank (pJ)
system.mem_ctrls2.readEnergy::1             273210600                       # Energy for read commands per rank (pJ)
system.mem_ctrls2.writeEnergy::0            141205680                       # Energy for write commands per rank (pJ)
system.mem_ctrls2.writeEnergy::1            137039040                       # Energy for write commands per rank (pJ)
system.mem_ctrls2.refreshEnergy::0         2553479760                       # Energy for refresh commands per rank (pJ)
system.mem_ctrls2.refreshEnergy::1         2553479760                       # Energy for refresh commands per rank (pJ)
system.mem_ctrls2.actBackEnergy::0        14226509160                       # Energy for active background per rank (pJ)
system.mem_ctrls2.actBackEnergy::1        13573879110                       # Energy for active background per rank (pJ)
system.mem_ctrls2.preBackEnergy::0        10977618750                       # Energy for precharge background per rank (pJ)
system.mem_ctrls2.preBackEnergy::1        11550101250                       # Energy for precharge background per rank (pJ)
system.mem_ctrls2.totalEnergy::0          28356507765                       # Total energy per rank (pJ)
system.mem_ctrls2.totalEnergy::1          28247221695                       # Total energy per rank (pJ)
system.mem_ctrls2.averagePower::0          725.322736                       # Core power per rank (mW)
system.mem_ctrls2.averagePower::1          722.527340                       # Core power per rank (mW)
system.mem_ctrls3.bytes_read::ruby.dir_cntrl3      4548544                       # Number of bytes read from this memory
system.mem_ctrls3.bytes_read::total           4548544                       # Number of bytes read from this memory
system.mem_ctrls3.bytes_written::ruby.dir_cntrl3      2743616                       # Number of bytes written to this memory
system.mem_ctrls3.bytes_written::total        2743616                       # Number of bytes written to this memory
system.mem_ctrls3.num_reads::ruby.dir_cntrl3        71071                       # Number of read requests responded to by this memory
system.mem_ctrls3.num_reads::total              71071                       # Number of read requests responded to by this memory
system.mem_ctrls3.num_writes::ruby.dir_cntrl3        42869                       # Number of write requests responded to by this memory
system.mem_ctrls3.num_writes::total             42869                       # Number of write requests responded to by this memory
system.mem_ctrls3.bw_read::ruby.dir_cntrl3    116334592                       # Total read bandwidth from this memory (bytes/s)
system.mem_ctrls3.bw_read::total            116334592                       # Total read bandwidth from this memory (bytes/s)
system.mem_ctrls3.bw_write::ruby.dir_cntrl3     70171345                       # Write bandwidth from this memory (bytes/s)
system.mem_ctrls3.bw_write::total            70171345                       # Write bandwidth from this memory (bytes/s)
system.mem_ctrls3.bw_total::ruby.dir_cntrl3    186505937                       # Total bandwidth to/from this memory (bytes/s)
system.mem_ctrls3.bw_total::total           186505937                       # Total bandwidth to/from this memory (bytes/s)
system.mem_ctrls3.readReqs                      71072                       # Number of read requests accepted
system.mem_ctrls3.writeReqs                     42869                       # Number of write requests accepted
system.mem_ctrls3.readBursts                    71072                       # Number of DRAM read bursts, including those serviced by the write queue
system.mem_ctrls3.writeBursts                   42869                       # Number of DRAM write bursts, including those merged in the write queue
system.mem_ctrls3.bytesReadDRAM               4548160                       # Total number of bytes read from DRAM
system.mem_ctrls3.bytesReadWrQ                    448                       # Total number of bytes read from write queue
system.mem_ctrls3.bytesWritten                2743360                       # Total number of bytes written to DRAM
system.mem_ctrls3.bytesReadSys                4548608                       # Total read bytes from the system interface side
system.mem_ctrls3.bytesWrittenSys             2743616                       # Total written bytes from the system interface side
system.mem_ctrls3.servicedByWrQ                     7                       # Number of DRAM read bursts serviced by the write queue
system.mem_ctrls3.mergedWrBursts                    0                       # Number of DRAM write bursts merged with an existing one
system.mem_ctrls3.neitherReadNorWriteReqs            0                       # Number of requests that are neither read nor write
system.mem_ctrls3.perBankRdBursts::0             4281                       # Per bank write bursts
system.mem_ctrls3.perBankRdBursts::1             4737                       # Per bank write bursts
system.mem_ctrls3.perBankRdBursts::2             4407                       # Per bank write bursts
system.mem_ctrls3.perBankRdBursts::3             4759                       # Per bank write bursts
system.mem_ctrls3.perBankRdBursts::4             4487                       # Per bank write bursts
system.mem_ctrls3.perBankRdBursts::5             4595                       # Per bank write bursts
system.mem_ctrls3.perBankRdBursts::6             4405                       # Per bank write bursts
system.mem_ctrls3.perBankRdBursts::7             4417                       # Per bank write bursts
system.mem_ctrls3.perBankRdBursts::8             4365                       # Per bank write bursts
system.mem_ctrls3.perBankRdBursts::9             4633                       # Per bank write bursts
system.mem_ctrls3.perBankRdBursts::10            4406                       # Per bank write bursts
system.mem_ctrls3.perBankRdBursts::11            4620                       # Per bank write bursts
system.mem_ctrls3.perBankRdBursts::12            4224                       # Per bank write bursts
system.mem_ctrls3.perBankRdBursts::13            4052                       # Per bank write bursts
system.mem_ctrls3.perBankRdBursts::14            4276                       # Per bank write bursts
system.mem_ctrls3.perBankRdBursts::15            4401                       # Per bank write bursts
system.mem_ctrls3.perBankWrBursts::0             2708                       # Per bank write bursts
system.mem_ctrls3.perBankWrBursts::1             2700                       # Per bank write bursts
system.mem_ctrls3.perBankWrBursts::2             2689                       # Per bank write bursts
system.mem_ctrls3.perBankWrBursts::3             2773                       # Per bank write bursts
system.mem_ctrls3.perBankWrBursts::4             2690                       # Per bank write bursts
system.mem_ctrls3.perBankWrBursts::5             2815                       # Per bank write bursts
system.mem_ctrls3.perBankWrBursts::6             2639                       # Per bank write bursts
system.mem_ctrls3.perBankWrBursts::7             2726                       # Per bank write bursts
system.mem_ctrls3.perBankWrBursts::8             2625                       # Per bank write bursts
system.mem_ctrls3.perBankWrBursts::9             2804                       # Per bank write bursts
system.mem_ctrls3.perBankWrBursts::10            2651                       # Per bank write bursts
system.mem_ctrls3.perBankWrBursts::11            2605                       # Per bank write bursts
system.mem_ctrls3.perBankWrBursts::12            2530                       # Per bank write bursts
system.mem_ctrls3.perBankWrBursts::13            2555                       # Per bank write bursts
system.mem_ctrls3.perBankWrBursts::14            2707                       # Per bank write bursts
system.mem_ctrls3.perBankWrBursts::15            2648                       # Per bank write bursts
system.mem_ctrls3.numRdRetry                        0                       # Number of times read queue was full causing retry
system.mem_ctrls3.numWrRetry                     1260                       # Number of times write queue was full causing retry
system.mem_ctrls3.totGap                  39098066500                       # Total gap between requests
system.mem_ctrls3.readPktSize::0                    0                       # Read request sizes (log2)
system.mem_ctrls3.readPktSize::1                    0                       # Read request sizes (log2)
system.mem_ctrls3.readPktSize::2                    0                       # Read request sizes (log2)
system.mem_ctrls3.readPktSize::3                    0                       # Read request sizes (log2)
system.mem_ctrls3.readPktSize::4                    0                       # Read request sizes (log2)
system.mem_ctrls3.readPktSize::5                    0                       # Read request sizes (log2)
system.mem_ctrls3.readPktSize::6                71072                       # Read request sizes (log2)
system.mem_ctrls3.writePktSize::0                   0                       # Write request sizes (log2)
system.mem_ctrls3.writePktSize::1                   0                       # Write request sizes (log2)
system.mem_ctrls3.writePktSize::2                   0                       # Write request sizes (log2)
system.mem_ctrls3.writePktSize::3                   0                       # Write request sizes (log2)
system.mem_ctrls3.writePktSize::4                   0                       # Write request sizes (log2)
system.mem_ctrls3.writePktSize::5                   0                       # Write request sizes (log2)
system.mem_ctrls3.writePktSize::6               42869                       # Write request sizes (log2)
system.mem_ctrls3.rdQLenPdf::0                  47251                       # What read queue length does an incoming req see
system.mem_ctrls3.rdQLenPdf::1                   5881                       # What read queue length does an incoming req see
system.mem_ctrls3.rdQLenPdf::2                   4539                       # What read queue length does an incoming req see
system.mem_ctrls3.rdQLenPdf::3                   3302                       # What read queue length does an incoming req see
system.mem_ctrls3.rdQLenPdf::4                   2519                       # What read queue length does an incoming req see
system.mem_ctrls3.rdQLenPdf::5                   1843                       # What read queue length does an incoming req see
system.mem_ctrls3.rdQLenPdf::6                   1266                       # What read queue length does an incoming req see
system.mem_ctrls3.rdQLenPdf::7                    923                       # What read queue length does an incoming req see
system.mem_ctrls3.rdQLenPdf::8                    662                       # What read queue length does an incoming req see
system.mem_ctrls3.rdQLenPdf::9                    527                       # What read queue length does an incoming req see
system.mem_ctrls3.rdQLenPdf::10                   444                       # What read queue length does an incoming req see
system.mem_ctrls3.rdQLenPdf::11                   391                       # What read queue length does an incoming req see
system.mem_ctrls3.rdQLenPdf::12                   312                       # What read queue length does an incoming req see
system.mem_ctrls3.rdQLenPdf::13                   242                       # What read queue length does an incoming req see
system.mem_ctrls3.rdQLenPdf::14                   205                       # What read queue length does an incoming req see
system.mem_ctrls3.rdQLenPdf::15                   188                       # What read queue length does an incoming req see
system.mem_ctrls3.rdQLenPdf::16                   158                       # What read queue length does an incoming req see
system.mem_ctrls3.rdQLenPdf::17                   122                       # What read queue length does an incoming req see
system.mem_ctrls3.rdQLenPdf::18                   104                       # What read queue length does an incoming req see
system.mem_ctrls3.rdQLenPdf::19                    80                       # What read queue length does an incoming req see
system.mem_ctrls3.rdQLenPdf::20                    56                       # What read queue length does an incoming req see
system.mem_ctrls3.rdQLenPdf::21                    34                       # What read queue length does an incoming req see
system.mem_ctrls3.rdQLenPdf::22                    15                       # What read queue length does an incoming req see
system.mem_ctrls3.rdQLenPdf::23                     1                       # What read queue length does an incoming req see
system.mem_ctrls3.rdQLenPdf::24                     0                       # What read queue length does an incoming req see
[...]
system.ruby.L2Cache_Controller.IS.Mem_Data::total        12530                      
system.ruby.L2Cache_Controller.IM.L1_GETX |          28     70.00%     70.00% |           0      0.00%     70.00% |           0      0.00%     70.00% |           0      0.00%     70.00% |           0      0.00%     70.00% |           0      0.00%     70.00% |           0      0.00%     70.00% |           0      0.00%     70.00% |           0      0.00%     70.00% |           0      0.00%     70.00% |           0      0.00%     70.00% |           0      0.00%     70.00% |           0      0.00%     70.00% |           0      0.00%     70.00% |           0      0.00%     70.00% |           0      0.00%     70.00% |          12     30.00%    100.00% |           0      0.00%    100.00% |           0      0.00%    100.00% |           0      0.00%    100.00% |           0      0.00%    100.00% |           0      0.00%    100.00% |           0      0.00%    100.00% |           0      0.00%    100.00% |           0      0.00%    100.00% |           0      0.00%    100.00% |           0      0.00%    100.00% |           0      0.00%    100.00% |           0      0.00%    100.00% |           0      0.00%    100.00% |           0      0.00%    100.00% |           0      0.00%    100.00%
system.ruby.L2Cache_Controller.IM.L1_GETX::total           40                      
system.ruby.L2Cache_Controller.IM.Mem_Data |        4705      3.12%      3.12% |        4697      3.12%      6.24% |        4706      3.12%      9.37% |        4713      3.13%     12.50% |        4704      3.12%     15.62% |        4711      3.13%     18.75% |        4710      3.13%     21.88% |        4694      3.12%     24.99% |        4710      3.13%     28.12% |        4711      3.13%     31.25% |        4696      3.12%     34.37% |        4715      3.13%     37.50% |        4700      3.12%     40.62% |        4703      3.12%     43.74% |        4702      3.12%     46.86% |        4698      3.12%     49.98% |        4716      3.13%     53.11% |        4710      3.13%     56.24% |        4712      3.13%     59.37% |        4706      3.12%     62.50% |        4709      3.13%     65.62% |        4723      3.14%     68.76% |        4701      3.12%     71.88% |        4707      3.13%     75.01% |        4720      3.13%     78.14% |        4710      3.13%     81.27% |        4716      3.13%     84.40% |        4702      3.12%     87.52% |        4703      3.12%     90.64% |        4699      3.12%     93.76% |        4703      3.12%     96.89% |        4688      3.11%    100.00%
system.ruby.L2Cache_Controller.IM.Mem_Data::total       150600                      
system.ruby.L2Cache_Controller.SS_MB.Exclusive_Unblock |           3      6.82%      6.82% |           6     13.64%     20.45% |           3      6.82%     27.27% |           4      9.09%     36.36% |           0      0.00%     36.36% |           0      0.00%     36.36% |           0      0.00%     36.36% |           0      0.00%     36.36% |           0      0.00%     36.36% |           0      0.00%     36.36% |           0      0.00%     36.36% |           0      0.00%     36.36% |           3      6.82%     43.18% |           0      0.00%     43.18% |           4      9.09%     52.27% |           0      0.00%     52.27% |           1      2.27%     54.55% |           0      0.00%     54.55% |          11     25.00%     79.55% |           2      4.55%     84.09% |           0      0.00%     84.09% |           1      2.27%     86.36% |           0      0.00%     86.36% |           1      2.27%     88.64% |           1      2.27%     90.91% |           0      0.00%     90.91% |           1      2.27%     93.18% |           2      4.55%     97.73% |           1      2.27%    100.00% |           0      0.00%    100.00% |           0      0.00%    100.00% |           0      0.00%    100.00%
system.ruby.L2Cache_Controller.SS_MB.Exclusive_Unblock::total           44                      
system.ruby.L2Cache_Controller.MT_MB.L1_GETS |          17     56.67%     56.67% |           0      0.00%     56.67% |           0      0.00%     56.67% |           0      0.00%     56.67% |           0      0.00%     56.67% |           0      0.00%     56.67% |           0      0.00%     56.67% |           0      0.00%     56.67% |           0      0.00%     56.67% |           0      0.00%     56.67% |           0      0.00%     56.67% |           0      0.00%     56.67% |           0      0.00%     56.67% |           0      0.00%     56.67% |           0      0.00%     56.67% |           0      0.00%     56.67% |          13     43.33%    100.00% |           0      0.00%    100.00% |           0      0.00%    100.00% |           0      0.00%    100.00% |           0      0.00%    100.00% |           0      0.00%    100.00% |           0      0.00%    100.00% |           0      0.00%    100.00% |           0      0.00%    100.00% |           0      0.00%    100.00% |           0      0.00%    100.00% |           0      0.00%    100.00% |           0      0.00%    100.00% |           0      0.00%    100.00% |           0      0.00%    100.00% |           0      0.00%    100.00%
system.ruby.L2Cache_Controller.MT_MB.L1_GETS::total           30                      
system.ruby.L2Cache_Controller.MT_MB.L1_GETX |           3     60.00%     60.00% |           0      0.00%     60.00% |           0      0.00%     60.00% |           0      0.00%     60.00% |           0      0.00%     60.00% |           0      0.00%     60.00% |           0      0.00%     60.00% |           0      0.00%     60.00% |           0      0.00%     60.00% |           0      0.00%     60.00% |           0      0.00%     60.00% |           0      0.00%     60.00% |           0      0.00%     60.00% |           0      0.00%     60.00% |           0      0.00%     60.00% |           0      0.00%     60.00% |           2     40.00%    100.00% |           0      0.00%    100.00% |           0      0.00%    100.00% |           0      0.00%    100.00% |           0      0.00%    100.00% |           0      0.00%    100.00% |           0      0.00%    100.00% |           0      0.00%    100.00% |           0      0.00%    100.00% |           0      0.00%    100.00% |           0      0.00%    100.00% |           0      0.00%    100.00% |           0      0.00%    100.00% |           0      0.00%    100.00% |           0      0.00%    100.00% |           0      0.00%    100.00%
system.ruby.L2Cache_Controller.MT_MB.L1_GETX::total            5                      
system.ruby.L2Cache_Controller.MT_MB.Exclusive_Unblock |       60289     12.21%     12.21% |       15538      3.15%     15.36% |       12748      2.58%     17.94% |       14800      3.00%     20.94% |       13334      2.70%     23.64% |       12717      2.58%     26.21% |       12241      2.48%     28.69% |       12902      2.61%     31.31% |       13097      2.65%     33.96% |       12757      2.58%     36.54% |       15511      3.14%     39.69% |       15760      3.19%     42.88% |       14127      2.86%     45.74% |       13215      2.68%     48.42% |       11998      2.43%     50.85% |       12462      2.52%     53.37% |       13917      2.82%     56.19% |       12805      2.59%     58.78% |       13229      2.68%     61.46% |       14224      2.88%     64.34% |       14902      3.02%     67.36% |       15878      3.22%     70.58% |       13721      2.78%     73.36% |       13754      2.79%     76.14% |       13836      2.80%     78.94% |       13398      2.71%     81.66% |       13249      2.68%     84.34% |       12958      2.62%     86.97% |       15562      3.15%     90.12% |       13986      2.83%     92.95% |       16357      3.31%     96.26% |       18447      3.74%    100.00%
system.ruby.L2Cache_Controller.MT_MB.Exclusive_Unblock::total       493719                      
system.ruby.L2Cache_Controller.MT_IIB.WB_Data |           0      0.00%      0.00% |           1     20.00%     20.00% |           1     20.00%     40.00% |           1     20.00%     60.00% |           0      0.00%     60.00% |           0      0.00%     60.00% |           1     20.00%     80.00% |           0      0.00%     80.00% |           0      0.00%     80.00% |           1     20.00%    100.00% |           0      0.00%    100.00% |           0      0.00%    100.00% |           0      0.00%    100.00% |           0      0.00%    100.00% |           0      0.00%    100.00% |           0      0.00%    100.00% |           0      0.00%    100.00% |           0      0.00%    100.00% |           0      0.00%    100.00% |           0      0.00%    100.00% |           0      0.00%    100.00% |           0      0.00%    100.00% |           0      0.00%    100.00% |           0      0.00%    100.00% |           0      0.00%    100.00% |           0      0.00%    100.00% |           0      0.00%    100.00% |           0      0.00%    100.00% |           0      0.00%    100.00% |           0      0.00%    100.00% |           0      0.00%    100.00% |           0      0.00%    100.00%
system.ruby.L2Cache_Controller.MT_IIB.WB_Data::total            5                      
system.ruby.L2Cache_Controller.MT_IIB.WB_Data_clean |        2914     49.60%     49.60% |           0      0.00%     49.60% |           0      0.00%     49.60% |           0      0.00%     49.60% |           0      0.00%     49.60% |           0      0.00%     49.60% |           0      0.00%     49.60% |           0      0.00%     49.60% |           0      0.00%     49.60% |           0      0.00%     49.60% |           0      0.00%     49.60% |           0      0.00%     49.60% |           0      0.00%     49.60% |           0      0.00%     49.60% |           0      0.00%     49.60% |           0      0.00%     49.60% |        2961     50.40%    100.00% |           0      0.00%    100.00% |           0      0.00%    100.00% |           0      0.00%    100.00% |           0      0.00%    100.00% |           0      0.00%    100.00% |           0      0.00%    100.00% |           0      0.00%    100.00% |           0      0.00%    100.00% |           0      0.00%    100.00% |           0      0.00%    100.00% |           0      0.00%    100.00% |           0      0.00%    100.00% |           0      0.00%    100.00% |           0      0.00%    100.00% |           0      0.00%    100.00%
system.ruby.L2Cache_Controller.MT_IIB.WB_Data_clean::total         5875                      
system.ruby.L2Cache_Controller.MT_IIB.Unblock |          25     40.32%     40.32% |           0      0.00%     40.32% |           0      0.00%     40.32% |           0      0.00%     40.32% |           0      0.00%     40.32% |           0      0.00%     40.32% |           0      0.00%     40.32% |           0      0.00%     40.32% |           0      0.00%     40.32% |           0      0.00%     40.32% |           0      0.00%     40.32% |           0      0.00%     40.32% |           0      0.00%     40.32% |           0      0.00%     40.32% |           0      0.00%     40.32% |           0      0.00%     40.32% |          37     59.68%    100.00% |           0      0.00%    100.00% |           0      0.00%    100.00% |           0      0.00%    100.00% |           0      0.00%    100.00% |           0      0.00%    100.00% |           0      0.00%    100.00% |           0      0.00%    100.00% |           0      0.00%    100.00% |           0      0.00%    100.00% |           0      0.00%    100.00% |           0      0.00%    100.00% |           0      0.00%    100.00% |           0      0.00%    100.00% |           0      0.00%    100.00% |           0      0.00%    100.00%
system.ruby.L2Cache_Controller.MT_IIB.Unblock::total           62                      
system.ruby.L2Cache_Controller.MT_IB.WB_Data_clean |          25     40.32%     40.32% |           0      0.00%     40.32% |           0      0.00%     40.32% |           0      0.00%     40.32% |           0      0.00%     40.32% |           0      0.00%     40.32% |           0      0.00%     40.32% |           0      0.00%     40.32% |           0      0.00%     40.32% |           0      0.00%     40.32% |           0      0.00%     40.32% |           0      0.00%     40.32% |           0      0.00%     40.32% |           0      0.00%     40.32% |           0      0.00%     40.32% |           0      0.00%     40.32% |          37     59.68%    100.00% |           0      0.00%    100.00% |           0      0.00%    100.00% |           0      0.00%    100.00% |           0      0.00%    100.00% |           0      0.00%    100.00% |           0      0.00%    100.00% |           0      0.00%    100.00% |           0      0.00%    100.00% |           0      0.00%    100.00% |           0      0.00%    100.00% |           0      0.00%    100.00% |           0      0.00%    100.00% |           0      0.00%    100.00% |           0      0.00%    100.00% |           0      0.00%    100.00%
system.ruby.L2Cache_Controller.MT_IB.WB_Data_clean::total           62                      
system.ruby.L2Cache_Controller.MT_SB.Unblock |        2914     49.56%     49.56% |           1      0.02%     49.57% |           1      0.02%     49.59% |           1      0.02%     49.61% |           0      0.00%     49.61% |           0      0.00%     49.61% |           1      0.02%     49.63% |           0      0.00%     49.63% |           0      0.00%     49.63% |           1      0.02%     49.64% |           0      0.00%     49.64% |           0      0.00%     49.64% |           0      0.00%     49.64% |           0      0.00%     49.64% |           0      0.00%     49.64% |           0      0.00%     49.64% |        2961     50.36%    100.00% |           0      0.00%    100.00% |           0      0.00%    100.00% |           0      0.00%    100.00% |           0      0.00%    100.00% |           0      0.00%    100.00% |           0      0.00%    100.00% |           0      0.00%    100.00% |           0      0.00%    100.00% |           0      0.00%    100.00% |           0      0.00%    100.00% |           0      0.00%    100.00% |           0      0.00%    100.00% |           0      0.00%    100.00% |           0      0.00%    100.00% |           0      0.00%    100.00%
system.ruby.L2Cache_Controller.MT_SB.Unblock::total         5880                      
system.ruby.SimicsNetworkPortInterface_Controller.MessageSend |       14745      9.41%      9.41% |       78374     50.00%     59.41% |       16245     10.36%     69.77% |       16240     10.36%     80.13% |       16003     10.21%     90.34% |       15141      9.66%    100.00% |           0      0.00%    100.00% |           0      0.00%    100.00% |           0      0.00%    100.00% |           0      0.00%    100.00% |           0      0.00%    100.00% |           0      0.00%    100.00% |           0      0.00%    100.00% |           0      0.00%    100.00% |           0      0.00%    100.00% |           0      0.00%    100.00% |           0      0.00%    100.00% |           0      0.00%    100.00% |           0      0.00%    100.00% |           0      0.00%    100.00% |           0      0.00%    100.00% |           0      0.00%    100.00% |           0      0.00%    100.00% |           0      0.00%    100.00% |           0      0.00%    100.00% |           0      0.00%    100.00% |           0      0.00%    100.00% |           0      0.00%    100.00% |           0      0.00%    100.00% |           0      0.00%    100.00% |           0      0.00%    100.00% |           0      0.00%    100.00%
system.ruby.SimicsNetworkPortInterface_Controller.MessageSend::total       156748                      
system.ruby.SimicsNetworkPortInterface_Controller.MessageRecv |       14745      9.41%      9.41% |       78374     50.00%     59.41% |       16245     10.36%     69.77% |       16240     10.36%     80.13% |       16003     10.21%     90.34% |       15141      9.66%    100.00% |           0      0.00%    100.00% |           0      0.00%    100.00% |           0      0.00%    100.00% |           0      0.00%    100.00% |           0      0.00%    100.00% |           0      0.00%    100.00% |           0      0.00%    100.00% |           0      0.00%    100.00% |           0      0.00%    100.00% |           0      0.00%    100.00% |           0      0.00%    100.00% |           0      0.00%    100.00% |           0      0.00%    100.00% |           0      0.00%    100.00% |           0      0.00%    100.00% |           0      0.00%    100.00% |           0      0.00%    100.00% |           0      0.00%    100.00% |           0      0.00%    100.00% |           0      0.00%    100.00% |           0      0.00%    100.00% |           0      0.00%    100.00% |           0      0.00%    100.00% |           0      0.00%    100.00% |           0      0.00%    100.00% |           0      0.00%    100.00%
system.ruby.SimicsNetworkPortInterface_Controller.MessageRecv::total       156748                      
system.ruby.SimicsNetworkPortInterface_Controller.A.MessageSend |       14745      9.41%      9.41% |       78374     50.00%     59.41% |       16245     10.36%     69.77% |       16240     10.36%     80.13% |       16003     10.21%     90.34% |       15141      9.66%    100.00% |           0      0.00%    100.00% |           0      0.00%    100.00% |           0      0.00%    100.00% |           0      0.00%    100.00% |           0      0.00%    100.00% |           0      0.00%    100.00% |           0      0.00%    100.00% |           0      0.00%    100.00% |           0      0.00%    100.00% |           0      0.00%    100.00% |           0      0.00%    100.00% |           0      0.00%    100.00% |           0      0.00%    100.00% |           0      0.00%    100.00% |           0      0.00%    100.00% |           0      0.00%    100.00% |           0      0.00%    100.00% |           0      0.00%    100.00% |           0      0.00%    100.00% |           0      0.00%    100.00% |           0      0.00%    100.00% |           0      0.00%    100.00% |           0      0.00%    100.00% |           0      0.00%    100.00% |           0      0.00%    100.00% |           0      0.00%    100.00%
system.ruby.SimicsNetworkPortInterface_Controller.A.MessageSend::total       156748                      
system.ruby.SimicsNetworkPortInterface_Controller.A.MessageRecv |       14745      9.41%      9.41% |       78374     50.00%     59.41% |       16245     10.36%     69.77% |       16240     10.36%     80.13% |       16003     10.21%     90.34% |       15141      9.66%    100.00% |           0      0.00%    100.00% |           0      0.00%    100.00% |           0      0.00%    100.00% |           0      0.00%    100.00% |           0      0.00%    100.00% |           0      0.00%    100.00% |           0      0.00%    100.00% |           0      0.00%    100.00% |           0      0.00%    100.00% |           0      0.00%    100.00% |           0      0.00%    100.00% |           0      0.00%    100.00% |           0      0.00%    100.00% |           0      0.00%    100.00% |           0      0.00%    100.00% |           0      0.00%    100.00% |           0      0.00%    100.00% |           0      0.00%    100.00% |           0      0.00%    100.00% |           0      0.00%    100.00% |           0      0.00%    100.00% |           0      0.00%    100.00% |           0      0.00%    100.00% |           0      0.00%    100.00% |           0      0.00%    100.00% |           0      0.00%    100.00%
system.ruby.SimicsNetworkPortInterface_Controller.A.MessageRecv::total       156748                      
system.switch_cpus.kern.inst.arm                    0                       # number of arm instructions executed
system.switch_cpus.kern.inst.quiesce                0                       # number of quiesce instructions executed

---------- End Simulation Statistics   ----------
