
---------- Begin Simulation Statistics ----------
sim_seconds                                  0.119687                       # Number of seconds simulated
sim_ticks                                119687113000                       # Number of ticks simulated
final_tick                               5295855191500                       # Number of ticks from beginning of simulation (restored from checkpoints and never reset)
sim_freq                                 1000000000000                       # Frequency of simulated ticks
host_inst_rate                                  43872                       # Simulator instruction rate (inst/s)
host_op_rate                                    77686                       # Simulator op (including micro ops) rate (op/s)
host_tick_rate                               96037798                       # Simulator tick rate (ticks/s)
host_mem_usage                                7205348                       # Number of bytes of host memory used
host_seconds                                  1246.25                       # Real time elapsed on the host
sim_insts                                    54675543                       # Number of instructions simulated
sim_ops                                      96816720                       # Number of ops (including micro ops) simulated
system.voltage_domain.voltage                       1                       # Voltage in Volts
system.clk_domain.clock                           500                       # Clock period in ticks
system.mem_ctrls0.bytes_read::ruby.dir_cntrl0     42577536                       # Number of bytes read from this memory
system.mem_ctrls0.bytes_read::total          42577536                       # Number of bytes read from this memory
system.mem_ctrls0.bytes_written::ruby.dir_cntrl0     20079616                       # Number of bytes written to this memory
system.mem_ctrls0.bytes_written::total       20079616                       # Number of bytes written to this memory
system.mem_ctrls0.num_reads::ruby.dir_cntrl0       665274                       # Number of read requests responded to by this memory
system.mem_ctrls0.num_reads::total             665274                       # Number of read requests responded to by this memory
system.mem_ctrls0.num_writes::ruby.dir_cntrl0       313744                       # Number of write requests responded to by this memory
system.mem_ctrls0.num_writes::total            313744                       # Number of write requests responded to by this memory
system.mem_ctrls0.bw_read::ruby.dir_cntrl0    355740354                       # Total read bandwidth from this memory (bytes/s)
system.mem_ctrls0.bw_read::total            355740354                       # Total read bandwidth from this memory (bytes/s)
system.mem_ctrls0.bw_write::ruby.dir_cntrl0    167767569                       # Write bandwidth from this memory (bytes/s)
system.mem_ctrls0.bw_write::total           167767569                       # Write bandwidth from this memory (bytes/s)
system.mem_ctrls0.bw_total::ruby.dir_cntrl0    523507924                       # Total bandwidth to/from this memory (bytes/s)
system.mem_ctrls0.bw_total::total           523507924                       # Total bandwidth to/from this memory (bytes/s)
system.mem_ctrls0.readReqs                     665274                       # Number of read requests accepted
system.mem_ctrls0.writeReqs                    313744                       # Number of write requests accepted
system.mem_ctrls0.readBursts                   665274                       # Number of DRAM read bursts, including those serviced by the write queue
system.mem_ctrls0.writeBursts                  313744                       # Number of DRAM write bursts, including those merged in the write queue
system.mem_ctrls0.bytesReadDRAM              42552256                       # Total number of bytes read from DRAM
system.mem_ctrls0.bytesReadWrQ                  25280                       # Total number of bytes read from write queue
system.mem_ctrls0.bytesWritten               20079360                       # Total number of bytes written to DRAM
system.mem_ctrls0.bytesReadSys               42577536                       # Total read bytes from the system interface side
system.mem_ctrls0.bytesWrittenSys            20079616                       # Total written bytes from the system interface side
system.mem_ctrls0.servicedByWrQ                   395                       # Number of DRAM read bursts serviced by the write queue
system.mem_ctrls0.mergedWrBursts                    0                       # Number of DRAM write bursts merged with an existing one
system.mem_ctrls0.neitherReadNorWriteReqs            0                       # Number of requests that are neither read nor write
system.mem_ctrls0.perBankRdBursts::0            41759                       # Per bank write bursts
system.mem_ctrls0.perBankRdBursts::1            41649                       # Per bank write bursts
system.mem_ctrls0.perBankRdBursts::2            40944                       # Per bank write bursts
system.mem_ctrls0.perBankRdBursts::3            41550                       # Per bank write bursts
system.mem_ctrls0.perBankRdBursts::4            41132                       # Per bank write bursts
system.mem_ctrls0.perBankRdBursts::5            41652                       # Per bank write bursts
system.mem_ctrls0.perBankRdBursts::6            42365                       # Per bank write bursts
system.mem_ctrls0.perBankRdBursts::7            42072                       # Per bank write bursts
system.mem_ctrls0.perBankRdBursts::8            41456                       # Per bank write bursts
system.mem_ctrls0.perBankRdBursts::9            41413                       # Per bank write bursts
system.mem_ctrls0.perBankRdBursts::10           40958                       # Per bank write bursts
system.mem_ctrls0.perBankRdBursts::11           41662                       # Per bank write bursts
system.mem_ctrls0.perBankRdBursts::12           41032                       # Per bank write bursts
system.mem_ctrls0.perBankRdBursts::13           41388                       # Per bank write bursts
system.mem_ctrls0.perBankRdBursts::14           41849                       # Per bank write bursts
system.mem_ctrls0.perBankRdBursts::15           41998                       # Per bank write bursts
system.mem_ctrls0.perBankWrBursts::0            19652                       # Per bank write bursts
system.mem_ctrls0.perBankWrBursts::1            19628                       # Per bank write bursts
system.mem_ctrls0.perBankWrBursts::2            19500                       # Per bank write bursts
system.mem_ctrls0.perBankWrBursts::3            19543                       # Per bank write bursts
system.mem_ctrls0.perBankWrBursts::4            19430                       # Per bank write bursts
system.mem_ctrls0.perBankWrBursts::5            19676                       # Per bank write bursts
system.mem_ctrls0.perBankWrBursts::6            19883                       # Per bank write bursts
system.mem_ctrls0.perBankWrBursts::7            19924                       # Per bank write bursts
system.mem_ctrls0.perBankWrBursts::8            19603                       # Per bank write bursts
system.mem_ctrls0.perBankWrBursts::9            19697                       # Per bank write bursts
system.mem_ctrls0.perBankWrBursts::10           19438                       # Per bank write bursts
system.mem_ctrls0.perBankWrBursts::11           19491                       # Per bank write bursts
system.mem_ctrls0.perBankWrBursts::12           19348                       # Per bank write bursts
system.mem_ctrls0.perBankWrBursts::13           19472                       # Per bank write bursts
system.mem_ctrls0.perBankWrBursts::14           19753                       # Per bank write bursts
system.mem_ctrls0.perBankWrBursts::15           19702                       # Per bank write bursts
system.mem_ctrls0.numRdRetry                    66389                       # Number of times read queue was full causing retry
system.mem_ctrls0.numWrRetry                    11077                       # Number of times write queue was full causing retry
system.mem_ctrls0.totGap                 119686709000                       # Total gap between requests
system.mem_ctrls0.readPktSize::0                    0                       # Read request sizes (log2)
system.mem_ctrls0.readPktSize::1                    0                       # Read request sizes (log2)
system.mem_ctrls0.readPktSize::2                    0                       # Read request sizes (log2)
system.mem_ctrls0.readPktSize::3                    0                       # Read request sizes (log2)
system.mem_ctrls0.readPktSize::4                    0                       # Read request sizes (log2)
system.mem_ctrls0.readPktSize::5                    0                       # Read request sizes (log2)
system.mem_ctrls0.readPktSize::6               665274                       # Read request sizes (log2)
system.mem_ctrls0.writePktSize::0                   0                       # Write request sizes (log2)
system.mem_ctrls0.writePktSize::1                   0                       # Write request sizes (log2)
system.mem_ctrls0.writePktSize::2                   0                       # Write request sizes (log2)
system.mem_ctrls0.writePktSize::3                   0                       # Write request sizes (log2)
system.mem_ctrls0.writePktSize::4                   0                       # Write request sizes (log2)
system.mem_ctrls0.writePktSize::5                   0                       # Write request sizes (log2)
system.mem_ctrls0.writePktSize::6              313744                       # Write request sizes (log2)
system.mem_ctrls0.rdQLenPdf::0                 178334                       # What read queue length does an incoming req see
system.mem_ctrls0.rdQLenPdf::1                  23065                       # What read queue length does an incoming req see
system.mem_ctrls0.rdQLenPdf::2                  22274                       # What read queue length does an incoming req see
system.mem_ctrls0.rdQLenPdf::3                  22887                       # What read queue length does an incoming req see
system.mem_ctrls0.rdQLenPdf::4                  23209                       # What read queue length does an incoming req see
system.mem_ctrls0.rdQLenPdf::5                  23313                       # What read queue length does an incoming req see
system.mem_ctrls0.rdQLenPdf::6                  22880                       # What read queue length does an incoming req see
system.mem_ctrls0.rdQLenPdf::7                  22413                       # What read queue length does an incoming req see
system.mem_ctrls0.rdQLenPdf::8                  21380                       # What read queue length does an incoming req see
system.mem_ctrls0.rdQLenPdf::9                  19858                       # What read queue length does an incoming req see
system.mem_ctrls0.rdQLenPdf::10                 18773                       # What read queue length does an incoming req see
system.mem_ctrls0.rdQLenPdf::11                 17726                       # What read queue length does an incoming req see
system.mem_ctrls0.rdQLenPdf::12                 16275                       # What read queue length does an incoming req see
system.mem_ctrls0.rdQLenPdf::13                 15203                       # What read queue length does an incoming req see
system.mem_ctrls0.rdQLenPdf::14                 13963                       # What read queue length does an incoming req see
system.mem_ctrls0.rdQLenPdf::15                 13006                       # What read queue length does an incoming req see
system.mem_ctrls0.rdQLenPdf::16                 12170                       # What read queue length does an incoming req see
system.mem_ctrls0.rdQLenPdf::17                 11217                       # What read queue length does an incoming req see
system.mem_ctrls0.rdQLenPdf::18                 10421                       # What read queue length does an incoming req see
system.mem_ctrls0.rdQLenPdf::19                  9646                       # What read queue length does an incoming req see
system.mem_ctrls0.rdQLenPdf::20                  9002                       # What read queue length does an incoming req see
system.mem_ctrls0.rdQLenPdf::21                  8486                       # What read queue length does an incoming req see
system.mem_ctrls0.rdQLenPdf::22                  7940                       # What read queue length does an incoming req see
system.mem_ctrls0.rdQLenPdf::23                  7406                       # What read queue length does an incoming req see
system.mem_ctrls0.rdQLenPdf::24                  6889                       # What read queue length does an incoming req see
system.mem_ctrls0.rdQLenPdf::25                  6525                       # What read queue length does an incoming req see
system.mem_ctrls0.rdQLenPdf::26                  6292                       # What read queue length does an incoming req see
system.mem_ctrls0.rdQLenPdf::27                  5927                       # What read queue length does an incoming req see
system.mem_ctrls0.rdQLenPdf::28                  5651                       # What read queue length does an incoming req see
system.mem_ctrls0.rdQLenPdf::29                  5431                       # What read queue length does an incoming req see
system.mem_ctrls0.rdQLenPdf::30                  5337                       # What read queue length does an incoming req see
system.mem_ctrls0.rdQLenPdf::31                 71980                       # What read queue length does an incoming req see
system.mem_ctrls0.wrQLenPdf::0                  45289                       # What write queue length does an incoming req see
system.mem_ctrls0.wrQLenPdf::1                  50935                       # What write queue length does an incoming req see
system.mem_ctrls0.wrQLenPdf::2                  53603                       # What write queue length does an incoming req see
system.mem_ctrls0.wrQLenPdf::3                  54640                       # What write queue length does an incoming req see
system.mem_ctrls0.wrQLenPdf::4                  54707                       # What write queue length does an incoming req see
system.mem_ctrls0.wrQLenPdf::5                  17311                       # What write queue length does an incoming req see
system.mem_ctrls0.wrQLenPdf::6                  16290                       # What write queue length does an incoming req see
system.mem_ctrls0.wrQLenPdf::7                  20969                       # What write queue length does an incoming req see
system.mem_ctrls0.bytesPerActivate::samples       325234                       # Bytes accessed per row activation
system.mem_ctrls0.bytesPerActivate::mean   192.571256                       # Bytes accessed per row activation
system.mem_ctrls0.bytesPerActivate::gmean   147.333013                       # Bytes accessed per row activation
system.mem_ctrls0.bytesPerActivate::stdev   147.654742                       # Bytes accessed per row activation
system.mem_ctrls0.bytesPerActivate::0-127       113904     35.02%     35.02% # Bytes accessed per row activation
system.mem_ctrls0.bytesPerActivate::128-255       100515     30.91%     65.93% # Bytes accessed per row activation
system.mem_ctrls0.bytesPerActivate::256-383        73332     22.55%     88.48% # Bytes accessed per row activation
system.mem_ctrls0.bytesPerActivate::384-511        18967      5.83%     94.31% # Bytes accessed per row activation
system.mem_ctrls0.bytesPerActivate::512-639        13455      4.14%     98.44% # Bytes accessed per row activation
system.mem_ctrls0.bytesPerActivate::640-767         2666      0.82%     99.26% # Bytes accessed per row activation
system.mem_ctrls0.bytesPerActivate::768-895         1240      0.38%     99.64% # Bytes accessed per row activation
system.mem_ctrls0.bytesPerActivate::896-1023          753      0.23%     99.88% # Bytes accessed per row activation
system.mem_ctrls0.bytesPerActivate::1024-1151          402      0.12%    100.00% # Bytes accessed per row activation
system.mem_ctrls0.bytesPerActivate::total       325234                       # Bytes accessed per row activation
system.mem_ctrls0.rdPerTurnAround::samples        47063                       # Reads before turning the bus around for writes
system.mem_ctrls0.rdPerTurnAround::mean     14.127276                       # Reads before turning the bus around for writes
system.mem_ctrls0.rdPerTurnAround::stdev    29.358453                       # Reads before turning the bus around for writes
system.mem_ctrls0.rdPerTurnAround::0-127        46811     99.46%     99.46% # Reads before turning the bus around for writes
system.mem_ctrls0.rdPerTurnAround::128-255          200      0.42%     99.89% # Reads before turning the bus around for writes
system.mem_ctrls0.rdPerTurnAround::256-383           38      0.08%     99.97% # Reads before turning the bus around for writes
system.mem_ctrls0.rdPerTurnAround::384-511            9      0.02%     99.99% # Reads before turning the bus around for writes
system.mem_ctrls0.rdPerTurnAround::512-639            1      0.00%     99.99% # Reads before turning the bus around for writes
system.mem_ctrls0.rdPerTurnAround::640-767            1      0.00%     99.99% # Reads before turning the bus around for writes
system.mem_ctrls0.rdPerTurnAround::768-895            1      0.00%    100.00% # Reads before turning the bus around for writes
system.mem_ctrls0.rdPerTurnAround::1024-1151            1      0.00%    100.00% # Reads before turning the bus around for writes
system.mem_ctrls0.rdPerTurnAround::3968-4095            1      0.00%    100.00% # Reads before turning the bus around for writes
system.mem_ctrls0.rdPerTurnAround::total        47063                       # Reads before turning the bus around for writes
system.mem_ctrls0.wrPerTurnAround::samples        47063                       # Writes before turning the bus around for reads
system.mem_ctrls0.wrPerTurnAround::mean      6.666383                       # Writes before turning the bus around for reads
system.mem_ctrls0.wrPerTurnAround::gmean     6.163772                       # Writes before turning the bus around for reads
system.mem_ctrls0.wrPerTurnAround::stdev     3.138776                       # Writes before turning the bus around for reads
system.mem_ctrls0.wrPerTurnAround::4-7          36354     77.25%     77.25% # Writes before turning the bus around for reads
system.mem_ctrls0.wrPerTurnAround::8-11          5596     11.89%     89.14% # Writes before turning the bus around for reads
system.mem_ctrls0.wrPerTurnAround::12-15         2852      6.06%     95.20% # Writes before turning the bus around for reads
system.mem_ctrls0.wrPerTurnAround::16-19         2261      4.80%    100.00% # Writes before turning the bus around for reads
system.mem_ctrls0.wrPerTurnAround::total        47063                       # Writes before turning the bus around for reads
system.mem_ctrls0.totQLat                 77073229411                       # Total ticks spent queuing
system.mem_ctrls0.totMemAccLat            89539710661                       # Total ticks spent from burst creation until serviced by the DRAM
system.mem_ctrls0.totBusLat                3324395000                       # Total ticks spent in databus transfers
system.mem_ctrls0.avgQLat                   115920.69                       # Average queueing delay per DRAM burst
system.mem_ctrls0.avgBusLat                   5000.00                       # Average bus latency per DRAM burst
system.mem_ctrls0.avgMemAccLat              134670.69                       # Average memory access latency per DRAM burst
system.mem_ctrls0.avgRdBW                      355.53                       # Average DRAM read bandwidth in MiByte/s
system.mem_ctrls0.avgWrBW                      167.77                       # Average achieved write bandwidth in MiByte/s
system.mem_ctrls0.avgRdBWSys                   355.74                       # Average system read bandwidth in MiByte/s
system.mem_ctrls0.avgWrBWSys                   167.77                       # Average system write bandwidth in MiByte/s
system.mem_ctrls0.peakBW                     12800.00                       # Theoretical peak bandwidth in MiByte/s
system.mem_ctrls0.busUtil                        4.09                       # Data bus utilization in percentage
system.mem_ctrls0.busUtilRead                    2.78                       # Data bus utilization in percentage for reads
system.mem_ctrls0.busUtilWrite                   1.31                       # Data bus utilization in percentage for writes
system.mem_ctrls0.avgRdQLen                      1.77                       # Average read queue length when enqueuing
system.mem_ctrls0.avgWrQLen                      3.04                       # Average write queue length when enqueuing
system.mem_ctrls0.readRowHits                  485374                       # Number of row buffer hits during reads
system.mem_ctrls0.writeRowHits                 168002                       # Number of row buffer hits during writes
system.mem_ctrls0.readRowHitRate                73.00                       # Row buffer hit rate for reads
system.mem_ctrls0.writeRowHitRate               53.55                       # Row buffer hit rate for writes
system.mem_ctrls0.avgGap                    122251.80                       # Average gap between requests
system.mem_ctrls0.pageHitRate                   66.76                       # Row buffer hit rate, read and write combined
system.mem_ctrls0.memoryStateTime::IDLE   20208810250                       # Time in different power states
system.mem_ctrls0.memoryStateTime::REF     3996460000                       # Time in different power states
system.mem_ctrls0.memoryStateTime::PRE_PDN            0                       # Time in different power states
system.mem_ctrls0.memoryStateTime::ACT    95477452250                       # Time in different power states
system.mem_ctrls0.memoryStateTime::ACT_PDN            0                       # Time in different power states
system.mem_ctrls0.actEnergy::0             1235666880                       # Energy for activate commands per rank (pJ)
system.mem_ctrls0.actEnergy::1             1222996320                       # Energy for activate commands per rank (pJ)
system.mem_ctrls0.preEnergy::0              674223000                       # Energy for precharge commands per rank (pJ)
system.mem_ctrls0.preEnergy::1              667309500                       # Energy for precharge commands per rank (pJ)
system.mem_ctrls0.readEnergy::0            2598250200                       # Energy for read commands per rank (pJ)
system.mem_ctrls0.readEnergy::1            2587579800                       # Energy for read commands per rank (pJ)
system.mem_ctrls0.writeEnergy::0           1018824480                       # Energy for write commands per rank (pJ)
system.mem_ctrls0.writeEnergy::1           1014139440                       # Energy for write commands per rank (pJ)
system.mem_ctrls0.refreshEnergy::0         7817075760                       # Energy for refresh commands per rank (pJ)
system.mem_ctrls0.refreshEnergy::1         7817075760                       # Energy for refresh commands per rank (pJ)
system.mem_ctrls0.actBackEnergy::0        49354987005                       # Energy for active background per rank (pJ)
system.mem_ctrls0.actBackEnergy::1        48887608950                       # Energy for active background per rank (pJ)
system.mem_ctrls0.preBackEnergy::0        28515777000                       # Energy for precharge background per rank (pJ)
system.mem_ctrls0.preBackEnergy::1        28925757750                       # Energy for precharge background per rank (pJ)
system.mem_ctrls0.totalEnergy::0          91214804325                       # Total energy per rank (pJ)
system.mem_ctrls0.totalEnergy::1          91122467520                       # Total energy per rank (pJ)
system.mem_ctrls0.averagePower::0          762.138535                       # Core power per rank (mW)
system.mem_ctrls0.averagePower::1          761.367022                       # Core power per rank (mW)
system.mem_ctrls1.bytes_read::ruby.dir_cntrl1     42059584                       # Number of bytes read from this memory
system.mem_ctrls1.bytes_read::total          42059584                       # Number of bytes read from this memory
system.mem_ctrls1.bytes_written::ruby.dir_cntrl1     19507968                       # Number of bytes written to this memory
system.mem_ctrls1.bytes_written::total       19507968                       # Number of bytes written to this memory
system.mem_ctrls1.num_reads::ruby.dir_cntrl1       657181                       # Number of read requests responded to by this memory
system.mem_ctrls1.num_reads::total             657181                       # Number of read requests responded to by this memory
system.mem_ctrls1.num_writes::ruby.dir_cntrl1       304812                       # Number of write requests responded to by this memory
system.mem_ctrls1.num_writes::total            304812                       # Number of write requests responded to by this memory
system.mem_ctrls1.bw_read::ruby.dir_cntrl1    351412804                       # Total read bandwidth from this memory (bytes/s)
system.mem_ctrls1.bw_read::total            351412804                       # Total read bandwidth from this memory (bytes/s)
system.mem_ctrls1.bw_write::ruby.dir_cntrl1    162991382                       # Write bandwidth from this memory (bytes/s)
system.mem_ctrls1.bw_write::total           162991382                       # Write bandwidth from this memory (bytes/s)
system.mem_ctrls1.bw_total::ruby.dir_cntrl1    514404187                       # Total bandwidth to/from this memory (bytes/s)
system.mem_ctrls1.bw_total::total           514404187                       # Total bandwidth to/from this memory (bytes/s)
system.mem_ctrls1.readReqs                     657181                       # Number of read requests accepted
system.mem_ctrls1.writeReqs                    304812                       # Number of write requests accepted
system.mem_ctrls1.readBursts                   657181                       # Number of DRAM read bursts, including those serviced by the write queue
system.mem_ctrls1.writeBursts                  304812                       # Number of DRAM write bursts, including those merged in the write queue
system.mem_ctrls1.bytesReadDRAM              42034176                       # Total number of bytes read from DRAM
system.mem_ctrls1.bytesReadWrQ                  25408                       # Total number of bytes read from write queue
system.mem_ctrls1.bytesWritten               19507776                       # Total number of bytes written to DRAM
system.mem_ctrls1.bytesReadSys               42059584                       # Total read bytes from the system interface side
system.mem_ctrls1.bytesWrittenSys            19507968                       # Total written bytes from the system interface side
system.mem_ctrls1.servicedByWrQ                   397                       # Number of DRAM read bursts serviced by the write queue
system.mem_ctrls1.mergedWrBursts                    0                       # Number of DRAM write bursts merged with an existing one
system.mem_ctrls1.neitherReadNorWriteReqs            0                       # Number of requests that are neither read nor write
system.mem_ctrls1.perBankRdBursts::0            41296                       # Per bank write bursts
system.mem_ctrls1.perBankRdBursts::1            41170                       # Per bank write bursts
system.mem_ctrls1.perBankRdBursts::2            40588                       # Per bank write bursts
system.mem_ctrls1.perBankRdBursts::3            40815                       # Per bank write bursts
system.mem_ctrls1.perBankRdBursts::4            40844                       # Per bank write bursts
system.mem_ctrls1.perBankRdBursts::5            40940                       # Per bank write bursts
system.mem_ctrls1.perBankRdBursts::6            42280                       # Per bank write bursts
system.mem_ctrls1.perBankRdBursts::7            41343                       # Per bank write bursts
system.mem_ctrls1.perBankRdBursts::8            40910                       # Per bank write bursts
system.mem_ctrls1.perBankRdBursts::9            40931                       # Per bank write bursts
system.mem_ctrls1.perBankRdBursts::10           40567                       # Per bank write bursts
system.mem_ctrls1.perBankRdBursts::11           40988                       # Per bank write bursts
system.mem_ctrls1.perBankRdBursts::12           40711                       # Per bank write bursts
system.mem_ctrls1.perBankRdBursts::13           40686                       # Per bank write bursts
system.mem_ctrls1.perBankRdBursts::14           41493                       # Per bank write bursts
system.mem_ctrls1.perBankRdBursts::15           41222                       # Per bank write bursts
system.mem_ctrls1.perBankWrBursts::0            19105                       # Per bank write bursts
system.mem_ctrls1.perBankWrBursts::1            19063                       # Per bank write bursts
system.mem_ctrls1.perBankWrBursts::2            19059                       # Per bank write bursts
system.mem_ctrls1.perBankWrBursts::3            18956                       # Per bank write bursts
system.mem_ctrls1.perBankWrBursts::4            18951                       # Per bank write bursts
system.mem_ctrls1.perBankWrBursts::5            19044                       # Per bank write bursts
system.mem_ctrls1.perBankWrBursts::6            19279                       # Per bank write bursts
system.mem_ctrls1.perBankWrBursts::7            19333                       # Per bank write bursts
system.mem_ctrls1.perBankWrBursts::8            19011                       # Per bank write bursts
system.mem_ctrls1.perBankWrBursts::9            19144                       # Per bank write bursts
system.mem_ctrls1.perBankWrBursts::10           18951                       # Per bank write bursts
system.mem_ctrls1.perBankWrBursts::11           18889                       # Per bank write bursts
system.mem_ctrls1.perBankWrBursts::12           18876                       # Per bank write bursts
system.mem_ctrls1.perBankWrBursts::13           18878                       # Per bank write bursts
system.mem_ctrls1.perBankWrBursts::14           19160                       # Per bank write bursts
system.mem_ctrls1.perBankWrBursts::15           19110                       # Per bank write bursts
system.mem_ctrls1.numRdRetry                    63655                       # Number of times read queue was full causing retry
system.mem_ctrls1.numWrRetry                    11003                       # Number of times write queue was full causing retry
system.mem_ctrls1.totGap                 119686446500                       # Total gap between requests
system.mem_ctrls1.readPktSize::0                    0                       # Read request sizes (log2)
system.mem_ctrls1.readPktSize::1                    0                       # Read request sizes (log2)
system.mem_ctrls1.readPktSize::2                    0                       # Read request sizes (log2)
system.mem_ctrls1.readPktSize::3                    0                       # Read request sizes (log2)
system.mem_ctrls1.readPktSize::4                    0                       # Read request sizes (log2)
system.mem_ctrls1.readPktSize::5                    0                       # Read request sizes (log2)
system.mem_ctrls1.readPktSize::6               657181                       # Read request sizes (log2)
system.mem_ctrls1.writePktSize::0                   0                       # Write request sizes (log2)
system.mem_ctrls1.writePktSize::1                   0                       # Write request sizes (log2)
system.mem_ctrls1.writePktSize::2                   0                       # Write request sizes (log2)
system.mem_ctrls1.writePktSize::3                   0                       # Write request sizes (log2)
system.mem_ctrls1.writePktSize::4                   0                       # Write request sizes (log2)
system.mem_ctrls1.writePktSize::5                   0                       # Write request sizes (log2)
system.mem_ctrls1.writePktSize::6              304812                       # Write request sizes (log2)
system.mem_ctrls1.rdQLenPdf::0                 171390                       # What read queue length does an incoming req see
system.mem_ctrls1.rdQLenPdf::1                  21746                       # What read queue length does an incoming req see
system.mem_ctrls1.rdQLenPdf::2                  22180                       # What read queue length does an incoming req see
system.mem_ctrls1.rdQLenPdf::3                  22831                       # What read queue length does an incoming req see
system.mem_ctrls1.rdQLenPdf::4                  23179                       # What read queue length does an incoming req see
system.mem_ctrls1.rdQLenPdf::5                  23274                       # What read queue length does an incoming req see
system.mem_ctrls1.rdQLenPdf::6                  22795                       # What read queue length does an incoming req see
system.mem_ctrls1.rdQLenPdf::7                  22473                       # What read queue length does an incoming req see
system.mem_ctrls1.rdQLenPdf::8                  21575                       # What read queue length does an incoming req see
system.mem_ctrls1.rdQLenPdf::9                  20221                       # What read queue length does an incoming req see
system.mem_ctrls1.rdQLenPdf::10                 19020                       # What read queue length does an incoming req see
system.mem_ctrls1.rdQLenPdf::11                 17779                       # What read queue length does an incoming req see
system.mem_ctrls1.rdQLenPdf::12                 16474                       # What read queue length does an incoming req see
system.mem_ctrls1.rdQLenPdf::13                 15151                       # What read queue length does an incoming req see
system.mem_ctrls1.rdQLenPdf::14                 14196                       # What read queue length does an incoming req see
system.mem_ctrls1.rdQLenPdf::15                 13113                       # What read queue length does an incoming req see
system.mem_ctrls1.rdQLenPdf::16                 12341                       # What read queue length does an incoming req see
system.mem_ctrls1.rdQLenPdf::17                 11372                       # What read queue length does an incoming req see
system.mem_ctrls1.rdQLenPdf::18                 10537                       # What read queue length does an incoming req see
system.mem_ctrls1.rdQLenPdf::19                  9727                       # What read queue length does an incoming req see
system.mem_ctrls1.rdQLenPdf::20                  9172                       # What read queue length does an incoming req see
system.mem_ctrls1.rdQLenPdf::21                  8652                       # What read queue length does an incoming req see
system.mem_ctrls1.rdQLenPdf::22                  7869                       # What read queue length does an incoming req see
system.mem_ctrls1.rdQLenPdf::23                  7373                       # What read queue length does an incoming req see
system.mem_ctrls1.rdQLenPdf::24                  6992                       # What read queue length does an incoming req see
system.mem_ctrls1.rdQLenPdf::25                  6670                       # What read queue length does an incoming req see
system.mem_ctrls1.rdQLenPdf::26                  6326                       # What read queue length does an incoming req see
system.mem_ctrls1.rdQLenPdf::27                  6105                       # What read queue length does an incoming req see
system.mem_ctrls1.rdQLenPdf::28                  5708                       # What read queue length does an incoming req see
system.mem_ctrls1.rdQLenPdf::29                  5590                       # What read queue length does an incoming req see
system.mem_ctrls1.rdQLenPdf::30                  5549                       # What read queue length does an incoming req see
system.mem_ctrls1.rdQLenPdf::31                 69404                       # What read queue length does an incoming req see
system.mem_ctrls1.wrQLenPdf::0                  43554                       # What write queue length does an incoming req see
system.mem_ctrls1.wrQLenPdf::1                  49068                       # What write queue length does an incoming req see
system.mem_ctrls1.wrQLenPdf::2                  51733                       # What write queue length does an incoming req see
system.mem_ctrls1.wrQLenPdf::3                  52865                       # What write queue length does an incoming req see
system.mem_ctrls1.wrQLenPdf::4                  53072                       # What write queue length does an incoming req see
system.mem_ctrls1.wrQLenPdf::5                  17474                       # What write queue length does an incoming req see
system.mem_ctrls1.wrQLenPdf::6                  16242                       # What write queue length does an incoming req see
system.mem_ctrls1.wrQLenPdf::7                  20804                       # What write queue length does an incoming req see
system.mem_ctrls1.bytesPerActivate::samples       312433                       # Bytes accessed per row activation
system.mem_ctrls1.bytesPerActivate::mean   196.972996                       # Bytes accessed per row activation
system.mem_ctrls1.bytesPerActivate::gmean   150.315088                       # Bytes accessed per row activation
system.mem_ctrls1.bytesPerActivate::stdev   149.962866                       # Bytes accessed per row activation
system.mem_ctrls1.bytesPerActivate::0-127       108304     34.66%     34.66% # Bytes accessed per row activation
system.mem_ctrls1.bytesPerActivate::128-255        93047     29.78%     64.45% # Bytes accessed per row activation
system.mem_ctrls1.bytesPerActivate::256-383        73274     23.45%     87.90% # Bytes accessed per row activation
system.mem_ctrls1.bytesPerActivate::384-511        19003      6.08%     93.98% # Bytes accessed per row activation
system.mem_ctrls1.bytesPerActivate::512-639        13630      4.36%     98.34% # Bytes accessed per row activation
system.mem_ctrls1.bytesPerActivate::640-767         2773      0.89%     99.23% # Bytes accessed per row activation
system.mem_ctrls1.bytesPerActivate::768-895         1237      0.40%     99.63% # Bytes accessed per row activation
system.mem_ctrls1.bytesPerActivate::896-1023          761      0.24%     99.87% # Bytes accessed per row activation
system.mem_ctrls1.bytesPerActivate::1024-1151          404      0.13%    100.00% # Bytes accessed per row activation
system.mem_ctrls1.bytesPerActivate::total       312433                       # Bytes accessed per row activation
system.mem_ctrls1.rdPerTurnAround::samples        45396                       # Reads before turning the bus around for writes
system.mem_ctrls1.rdPerTurnAround::mean     14.467750                       # Reads before turning the bus around for writes
system.mem_ctrls1.rdPerTurnAround::stdev    27.681183                       # Reads before turning the bus around for writes
system.mem_ctrls1.rdPerTurnAround::0-127        45139     99.43%     99.43% # Reads before turning the bus around for writes
system.mem_ctrls1.rdPerTurnAround::128-255          203      0.45%     99.88% # Reads before turning the bus around for writes
system.mem_ctrls1.rdPerTurnAround::256-383           36      0.08%     99.96% # Reads before turning the bus around for writes
system.mem_ctrls1.rdPerTurnAround::384-511           10      0.02%     99.98% # Reads before turning the bus around for writes
system.mem_ctrls1.rdPerTurnAround::512-639            2      0.00%     99.99% # Reads before turning the bus around for writes
system.mem_ctrls1.rdPerTurnAround::640-767            1      0.00%     99.99% # Reads before turning the bus around for writes
system.mem_ctrls1.rdPerTurnAround::768-895            2      0.00%     99.99% # Reads before turning the bus around for writes
system.mem_ctrls1.rdPerTurnAround::1024-1151            1      0.00%    100.00% # Reads before turning the bus around for writes
system.mem_ctrls1.rdPerTurnAround::1152-1279            1      0.00%    100.00% # Reads before turning the bus around for writes
system.mem_ctrls1.rdPerTurnAround::2816-2943            1      0.00%    100.00% # Reads before turning the bus around for writes
system.mem_ctrls1.rdPerTurnAround::total        45396                       # Reads before turning the bus around for writes
system.mem_ctrls1.wrPerTurnAround::samples        45396                       # Writes before turning the bus around for reads
system.mem_ctrls1.wrPerTurnAround::mean      6.714446                       # Writes before turning the bus around for reads
system.mem_ctrls1.wrPerTurnAround::gmean     6.199863                       # Writes before turning the bus around for reads
system.mem_ctrls1.wrPerTurnAround::stdev     3.175345                       # Writes before turning the bus around for reads
system.mem_ctrls1.wrPerTurnAround::4-7          34764     76.58%     76.58% # Writes before turning the bus around for reads
system.mem_ctrls1.wrPerTurnAround::8-11          5529     12.18%     88.76% # Writes before turning the bus around for reads
system.mem_ctrls1.wrPerTurnAround::12-15         2806      6.18%     94.94% # Writes before turning the bus around for reads
system.mem_ctrls1.wrPerTurnAround::16-19         2297      5.06%    100.00% # Writes before turning the bus around for reads
system.mem_ctrls1.wrPerTurnAround::total        45396                       # Writes before turning the bus around for reads
system.mem_ctrls1.totQLat                 76327501422                       # Total ticks spent queuing
system.mem_ctrls1.totMemAccLat            88642201422                       # Total ticks spent from burst creation until serviced by the DRAM
system.mem_ctrls1.totBusLat                3283920000                       # Total ticks spent in databus transfers
system.mem_ctrls1.avgQLat                   116214.01                       # Average queueing delay per DRAM burst
system.mem_ctrls1.avgBusLat                   5000.00                       # Average bus latency per DRAM burst
system.mem_ctrls1.avgMemAccLat              134964.01                       # Average memory access latency per DRAM burst
system.mem_ctrls1.avgRdBW                      351.20                       # Average DRAM read bandwidth in MiByte/s
system.mem_ctrls1.avgWrBW                      162.99                       # Average achieved write bandwidth in MiByte/s
system.mem_ctrls1.avgRdBWSys                   351.41                       # Average system read bandwidth in MiByte/s
system.mem_ctrls1.avgWrBWSys                   162.99                       # Average system write bandwidth in MiByte/s
system.mem_ctrls1.peakBW                     12800.00                       # Theoretical peak bandwidth in MiByte/s
system.mem_ctrls1.busUtil                        4.02                       # Data bus utilization in percentage
system.mem_ctrls1.busUtilRead                    2.74                       # Data bus utilization in percentage for reads
system.mem_ctrls1.busUtilWrite                   1.27                       # Data bus utilization in percentage for writes
system.mem_ctrls1.avgRdQLen                      1.76                       # Average read queue length when enqueuing
system.mem_ctrls1.avgWrQLen                      3.03                       # Average write queue length when enqueuing
system.mem_ctrls1.readRowHits                  482738                       # Number of row buffer hits during reads
system.mem_ctrls1.writeRowHits                 166413                       # Number of row buffer hits during writes
system.mem_ctrls1.readRowHitRate                73.50                       # Row buffer hit rate for reads
system.mem_ctrls1.writeRowHitRate               54.60                       # Row buffer hit rate for writes
system.mem_ctrls1.avgGap                    124415.09                       # Average gap between requests
system.mem_ctrls1.pageHitRate                   67.51                       # Row buffer hit rate, read and write combined
system.mem_ctrls1.memoryStateTime::IDLE   20698146750                       # Time in different power states
system.mem_ctrls1.memoryStateTime::REF     3996460000                       # Time in different power states
system.mem_ctrls1.memoryStateTime::PRE_PDN            0                       # Time in different power states
system.mem_ctrls1.memoryStateTime::ACT    94988115750                       # Time in different power states
system.mem_ctrls1.memoryStateTime::ACT_PDN            0                       # Time in different power states
system.mem_ctrls1.actEnergy::0             1191493800                       # Energy for activate commands per rank (pJ)
system.mem_ctrls1.actEnergy::1             1170416520                       # Energy for activate commands per rank (pJ)
system.mem_ctrls1.preEnergy::0              650120625                       # Energy for precharge commands per rank (pJ)
system.mem_ctrls1.preEnergy::1              638620125                       # Energy for precharge commands per rank (pJ)
system.mem_ctrls1.readEnergy::0            2568243600                       # Energy for read commands per rank (pJ)
system.mem_ctrls1.readEnergy::1            2554422000                       # Energy for read commands per rank (pJ)
system.mem_ctrls1.writeEnergy::0            990033840                       # Energy for write commands per rank (pJ)
system.mem_ctrls1.writeEnergy::1            985050720                       # Energy for write commands per rank (pJ)
system.mem_ctrls1.refreshEnergy::0         7817075760                       # Energy for refresh commands per rank (pJ)
system.mem_ctrls1.refreshEnergy::1         7817075760                       # Energy for refresh commands per rank (pJ)
system.mem_ctrls1.actBackEnergy::0        48148599105                       # Energy for active background per rank (pJ)
system.mem_ctrls1.actBackEnergy::1        47923581060                       # Energy for active background per rank (pJ)
system.mem_ctrls1.preBackEnergy::0        29574012000                       # Energy for precharge background per rank (pJ)
system.mem_ctrls1.preBackEnergy::1        29771396250                       # Energy for precharge background per rank (pJ)
system.mem_ctrls1.totalEnergy::0          90939578730                       # Total energy per rank (pJ)
system.mem_ctrls1.totalEnergy::1          90860562435                       # Total energy per rank (pJ)
system.mem_ctrls1.averagePower::0          759.838908                       # Core power per rank (mW)
system.mem_ctrls1.averagePower::1          759.178693                       # Core power per rank (mW)
system.mem_ctrls2.bytes_read::ruby.dir_cntrl2     41965632                       # Number of bytes read from this memory
system.mem_ctrls2.bytes_read::total          41965632                       # Number of bytes read from this memory
system.mem_ctrls2.bytes_written::ruby.dir_cntrl2     19490560                       # Number of bytes written to this memory
system.mem_ctrls2.bytes_written::total       19490560                       # Number of bytes written to this memory
system.mem_ctrls2.num_reads::ruby.dir_cntrl2       655713                       # Number of read requests responded to by this memory
system.mem_ctrls2.num_reads::total             655713                       # Number of read requests responded to by this memory
system.mem_ctrls2.num_writes::ruby.dir_cntrl2       304540                       # Number of write requests responded to by this memory
system.mem_ctrls2.num_writes::total            304540                       # Number of write requests responded to by this memory
system.mem_ctrls2.bw_read::ruby.dir_cntrl2    350627824                       # Total read bandwidth from this memory (bytes/s)
system.mem_ctrls2.bw_read::total            350627824                       # Total read bandwidth from this memory (bytes/s)
system.mem_ctrls2.bw_write::ruby.dir_cntrl2    162845936                       # Write bandwidth from this memory (bytes/s)
system.mem_ctrls2.bw_write::total           162845936                       # Write bandwidth from this memory (bytes/s)
system.mem_ctrls2.bw_total::ruby.dir_cntrl2    513473761                       # Total bandwidth to/from this memory (bytes/s)
system.mem_ctrls2.bw_total::total           513473761                       # Total bandwidth to/from this memory (bytes/s)
system.mem_ctrls2.readReqs                     655713                       # Number of read requests accepted
system.mem_ctrls2.writeReqs                    304540                       # Number of write requests accepted
system.mem_ctrls2.readBursts                   655713                       # Number of DRAM read bursts, including those serviced by the write queue
system.mem_ctrls2.writeBursts                  304540                       # Number of DRAM write bursts, including those merged in the write queue
system.mem_ctrls2.bytesReadDRAM              41944192                       # Total number of bytes read from DRAM
system.mem_ctrls2.bytesReadWrQ                  21440                       # Total number of bytes read from write queue
system.mem_ctrls2.bytesWritten               19490432                       # Total number of bytes written to DRAM
system.mem_ctrls2.bytesReadSys               41965632                       # Total read bytes from the system interface side
system.mem_ctrls2.bytesWrittenSys            19490560                       # Total written bytes from the system interface side
system.mem_ctrls2.servicedByWrQ                   335                       # Number of DRAM read bursts serviced by the write queue
system.mem_ctrls2.mergedWrBursts                    0                       # Number of DRAM write bursts merged with an existing one
system.mem_ctrls2.neitherReadNorWriteReqs            0                       # Number of requests that are neither read nor write
system.mem_ctrls2.perBankRdBursts::0            41091                       # Per bank write bursts
system.mem_ctrls2.perBankRdBursts::1            40962                       # Per bank write bursts
system.mem_ctrls2.perBankRdBursts::2            40676                       # Per bank write bursts
system.mem_ctrls2.perBankRdBursts::3            40684                       # Per bank write bursts
system.mem_ctrls2.perBankRdBursts::4            40863                       # Per bank write bursts
system.mem_ctrls2.perBankRdBursts::5            40899                       # Per bank write bursts
system.mem_ctrls2.perBankRdBursts::6            42081                       # Per bank write bursts
system.mem_ctrls2.perBankRdBursts::7            41320                       # Per bank write bursts
system.mem_ctrls2.perBankRdBursts::8            40778                       # Per bank write bursts
system.mem_ctrls2.perBankRdBursts::9            40707                       # Per bank write bursts
system.mem_ctrls2.perBankRdBursts::10           40603                       # Per bank write bursts
system.mem_ctrls2.perBankRdBursts::11           40851                       # Per bank write bursts
system.mem_ctrls2.perBankRdBursts::12           40709                       # Per bank write bursts
system.mem_ctrls2.perBankRdBursts::13           40669                       # Per bank write bursts
system.mem_ctrls2.perBankRdBursts::14           41401                       # Per bank write bursts
system.mem_ctrls2.perBankRdBursts::15           41084                       # Per bank write bursts
system.mem_ctrls2.perBankWrBursts::0            19104                       # Per bank write bursts
system.mem_ctrls2.perBankWrBursts::1            19044                       # Per bank write bursts
system.mem_ctrls2.perBankWrBursts::2            19002                       # Per bank write bursts
system.mem_ctrls2.perBankWrBursts::3            18938                       # Per bank write bursts
system.mem_ctrls2.perBankWrBursts::4            18995                       # Per bank write bursts
system.mem_ctrls2.perBankWrBursts::5            19042                       # Per bank write bursts
system.mem_ctrls2.perBankWrBursts::6            19200                       # Per bank write bursts
system.mem_ctrls2.perBankWrBursts::7            19289                       # Per bank write bursts
system.mem_ctrls2.perBankWrBursts::8            19036                       # Per bank write bursts
system.mem_ctrls2.perBankWrBursts::9            19109                       # Per bank write bursts
system.mem_ctrls2.perBankWrBursts::10           18902                       # Per bank write bursts
system.mem_ctrls2.perBankWrBursts::11           18918                       # Per bank write bursts
system.mem_ctrls2.perBankWrBursts::12           18918                       # Per bank write bursts
system.mem_ctrls2.perBankWrBursts::13           18913                       # Per bank write bursts
system.mem_ctrls2.perBankWrBursts::14           19067                       # Per bank write bursts
system.mem_ctrls2.perBankWrBursts::15           19061                       # Per bank write bursts
system.mem_ctrls2.numRdRetry                    62219                       # Number of times read queue was full causing retry
system.mem_ctrls2.numWrRetry                    11244                       # Number of times write queue was full causing retry
system.mem_ctrls2.totGap                 119687061500                       # Total gap between requests
system.mem_ctrls2.readPktSize::0                    0                       # Read request sizes (log2)
system.mem_ctrls2.readPktSize::1                    0                       # Read request sizes (log2)
system.mem_ctrls2.readPktSize::2                    0                       # Read request sizes (log2)
system.mem_ctrls2.readPktSize::3                    0                       # Read request sizes (log2)
system.mem_ctrls2.readPktSize::4                    0                       # Read request sizes (log2)
system.mem_ctrls2.readPktSize::5                    0                       # Read request sizes (log2)
system.mem_ctrls2.readPktSize::6               655713                       # Read request sizes (log2)
system.mem_ctrls2.writePktSize::0                   0                       # Write request sizes (log2)
system.mem_ctrls2.writePktSize::1                   0                       # Write request sizes (log2)
system.mem_ctrls2.writePktSize::2                   0                       # Write request sizes (log2)
system.mem_ctrls2.writePktSize::3                   0                       # Write request sizes (log2)
system.mem_ctrls2.writePktSize::4                   0                       # Write request sizes (log2)
system.mem_ctrls2.writePktSize::5                   0                       # Write request sizes (log2)
system.mem_ctrls2.writePktSize::6              304540                       # Write request sizes (log2)
system.mem_ctrls2.rdQLenPdf::0                 171646                       # What read queue length does an incoming req see
system.mem_ctrls2.rdQLenPdf::1                  22280                       # What read queue length does an incoming req see
system.mem_ctrls2.rdQLenPdf::2                  22826                       # What read queue length does an incoming req see
system.mem_ctrls2.rdQLenPdf::3                  23626                       # What read queue length does an incoming req see
system.mem_ctrls2.rdQLenPdf::4                  24095                       # What read queue length does an incoming req see
system.mem_ctrls2.rdQLenPdf::5                  23596                       # What read queue length does an incoming req see
system.mem_ctrls2.rdQLenPdf::6                  23118                       # What read queue length does an incoming req see
system.mem_ctrls2.rdQLenPdf::7                  22522                       # What read queue length does an incoming req see
system.mem_ctrls2.rdQLenPdf::8                  21372                       # What read queue length does an incoming req see
system.mem_ctrls2.rdQLenPdf::9                  20466                       # What read queue length does an incoming req see
system.mem_ctrls2.rdQLenPdf::10                 19099                       # What read queue length does an incoming req see
system.mem_ctrls2.rdQLenPdf::11                 17502                       # What read queue length does an incoming req see
system.mem_ctrls2.rdQLenPdf::12                 16274                       # What read queue length does an incoming req see
system.mem_ctrls2.rdQLenPdf::13                 15313                       # What read queue length does an incoming req see
system.mem_ctrls2.rdQLenPdf::14                 14240                       # What read queue length does an incoming req see
system.mem_ctrls2.rdQLenPdf::15                 13168                       # What read queue length does an incoming req see
system.mem_ctrls2.rdQLenPdf::16                 12160                       # What read queue length does an incoming req see
system.mem_ctrls2.rdQLenPdf::17                 11116                       # What read queue length does an incoming req see
system.mem_ctrls2.rdQLenPdf::18                 10425                       # What read queue length does an incoming req see
system.mem_ctrls2.rdQLenPdf::19                  9788                       # What read queue length does an incoming req see
system.mem_ctrls2.rdQLenPdf::20                  8994                       # What read queue length does an incoming req see
system.mem_ctrls2.rdQLenPdf::21                  8165                       # What read queue length does an incoming req see
system.mem_ctrls2.rdQLenPdf::22                  7637                       # What read queue length does an incoming req see
system.mem_ctrls2.rdQLenPdf::23                  7037                       # What read queue length does an incoming req see
system.mem_ctrls2.rdQLenPdf::24                  6731                       # What read queue length does an incoming req see
system.mem_ctrls2.rdQLenPdf::25                  6468                       # What read queue length does an incoming req see
system.mem_ctrls2.rdQLenPdf::26                  6031                       # What read queue length does an incoming req see
system.mem_ctrls2.rdQLenPdf::27                  5823                       # What read queue length does an incoming req see
system.mem_ctrls2.rdQLenPdf::28                  5654                       # What read queue length does an incoming req see
system.mem_ctrls2.rdQLenPdf::29                  5358                       # What read queue length does an incoming req see
system.mem_ctrls2.rdQLenPdf::30                  5251                       # What read queue length does an incoming req see
system.mem_ctrls2.rdQLenPdf::31                 67597                       # What read queue length does an incoming req see
system.mem_ctrls2.wrQLenPdf::0                  43639                       # What write queue length does an incoming req see
system.mem_ctrls2.wrQLenPdf::1                  49126                       # What write queue length does an incoming req see
system.mem_ctrls2.wrQLenPdf::2                  51496                       # What write queue length does an incoming req see
system.mem_ctrls2.wrQLenPdf::3                  52776                       # What write queue length does an incoming req see
system.mem_ctrls2.wrQLenPdf::4                  53020                       # What write queue length does an incoming req see
system.mem_ctrls2.wrQLenPdf::5                  17369                       # What write queue length does an incoming req see
system.mem_ctrls2.wrQLenPdf::6                  16107                       # What write queue length does an incoming req see
system.mem_ctrls2.wrQLenPdf::7                  21007                       # What write queue length does an incoming req see
system.mem_ctrls2.bytesPerActivate::samples       311254                       # Bytes accessed per row activation
system.mem_ctrls2.bytesPerActivate::mean   197.375931                       # Bytes accessed per row activation
system.mem_ctrls2.bytesPerActivate::gmean   150.861873                       # Bytes accessed per row activation
system.mem_ctrls2.bytesPerActivate::stdev   149.724756                       # Bytes accessed per row activation
system.mem_ctrls2.bytesPerActivate::0-127       106743     34.29%     34.29% # Bytes accessed per row activation
system.mem_ctrls2.bytesPerActivate::128-255        93347     29.99%     64.29% # Bytes accessed per row activation
system.mem_ctrls2.bytesPerActivate::256-383        73513     23.62%     87.90% # Bytes accessed per row activation
system.mem_ctrls2.bytesPerActivate::384-511        19026      6.11%     94.02% # Bytes accessed per row activation
system.mem_ctrls2.bytesPerActivate::512-639        13534      4.35%     98.36% # Bytes accessed per row activation
system.mem_ctrls2.bytesPerActivate::640-767         2679      0.86%     99.23% # Bytes accessed per row activation
system.mem_ctrls2.bytesPerActivate::768-895         1219      0.39%     99.62% # Bytes accessed per row activation
system.mem_ctrls2.bytesPerActivate::896-1023          798      0.26%     99.87% # Bytes accessed per row activation
system.mem_ctrls2.bytesPerActivate::1024-1151          395      0.13%    100.00% # Bytes accessed per row activation
system.mem_ctrls2.bytesPerActivate::total       311254                       # Bytes accessed per row activation
system.mem_ctrls2.rdPerTurnAround::samples        45444                       # Reads before turning the bus around for writes
system.mem_ctrls2.rdPerTurnAround::mean     14.421574                       # Reads before turning the bus around for writes
system.mem_ctrls2.rdPerTurnAround::stdev    27.947542                       # Reads before turning the bus around for writes
system.mem_ctrls2.rdPerTurnAround::0-127        45193     99.45%     99.45% # Reads before turning the bus around for writes
system.mem_ctrls2.rdPerTurnAround::128-255          191      0.42%     99.87% # Reads before turning the bus around for writes
system.mem_ctrls2.rdPerTurnAround::256-383           36      0.08%     99.95% # Reads before turning the bus around for writes
system.mem_ctrls2.rdPerTurnAround::384-511           13      0.03%     99.98% # Reads before turning the bus around for writes
system.mem_ctrls2.rdPerTurnAround::512-639            5      0.01%     99.99% # Reads before turning the bus around for writes
system.mem_ctrls2.rdPerTurnAround::640-767            3      0.01%     99.99% # Reads before turning the bus around for writes
system.mem_ctrls2.rdPerTurnAround::896-1023            1      0.00%    100.00% # Reads before turning the bus around for writes
system.mem_ctrls2.rdPerTurnAround::1152-1279            1      0.00%    100.00% # Reads before turning the bus around for writes
system.mem_ctrls2.rdPerTurnAround::2816-2943            1      0.00%    100.00% # Reads before turning the bus around for writes
system.mem_ctrls2.rdPerTurnAround::total        45444                       # Reads before turning the bus around for writes
system.mem_ctrls2.wrPerTurnAround::samples        45444                       # Writes before turning the bus around for reads
system.mem_ctrls2.wrPerTurnAround::mean      6.701391                       # Writes before turning the bus around for reads
system.mem_ctrls2.wrPerTurnAround::gmean     6.189277                       # Writes before turning the bus around for reads
system.mem_ctrls2.wrPerTurnAround::stdev     3.167916                       # Writes before turning the bus around for reads
system.mem_ctrls2.wrPerTurnAround::4-7          34924     76.85%     76.85% # Writes before turning the bus around for reads
system.mem_ctrls2.wrPerTurnAround::8-11          5413     11.91%     88.76% # Writes before turning the bus around for reads
system.mem_ctrls2.wrPerTurnAround::12-15         2842      6.25%     95.02% # Writes before turning the bus around for reads
system.mem_ctrls2.wrPerTurnAround::16-19         2265      4.98%    100.00% # Writes before turning the bus around for reads
system.mem_ctrls2.wrPerTurnAround::total        45444                       # Writes before turning the bus around for reads
system.mem_ctrls2.totQLat                 74707008884                       # Total ticks spent queuing
system.mem_ctrls2.totMemAccLat            86995346384                       # Total ticks spent from burst creation until serviced by the DRAM
system.mem_ctrls2.totBusLat                3276890000                       # Total ticks spent in databus transfers
system.mem_ctrls2.avgQLat                   113990.72                       # Average queueing delay per DRAM burst
system.mem_ctrls2.avgBusLat                   5000.00                       # Average bus latency per DRAM burst
system.mem_ctrls2.avgMemAccLat              132740.72                       # Average memory access latency per DRAM burst
system.mem_ctrls2.avgRdBW                      350.45                       # Average DRAM read bandwidth in MiByte/s
system.mem_ctrls2.avgWrBW                      162.84                       # Average achieved write bandwidth in MiByte/s
system.mem_ctrls2.avgRdBWSys                   350.63                       # Average system read bandwidth in MiByte/s
system.mem_ctrls2.avgWrBWSys                   162.85                       # Average system write bandwidth in MiByte/s
system.mem_ctrls2.peakBW                     12800.00                       # Theoretical peak bandwidth in MiByte/s
system.mem_ctrls2.busUtil                        4.01                       # Data bus utilization in percentage
system.mem_ctrls2.busUtilRead                    2.74                       # Data bus utilization in percentage for reads
system.mem_ctrls2.busUtilWrite                   1.27                       # Data bus utilization in percentage for writes
system.mem_ctrls2.avgRdQLen                      1.75                       # Average read queue length when enqueuing
system.mem_ctrls2.avgWrQLen                      3.03                       # Average write queue length when enqueuing
system.mem_ctrls2.readRowHits                  481568                       # Number of row buffer hits during reads
system.mem_ctrls2.writeRowHits                 167087                       # Number of row buffer hits during writes
system.mem_ctrls2.readRowHitRate                73.48                       # Row buffer hit rate for reads
system.mem_ctrls2.writeRowHitRate               54.87                       # Row buffer hit rate for writes
system.mem_ctrls2.avgGap                    124641.17                       # Average gap between requests
system.mem_ctrls2.pageHitRate                   67.57                       # Row buffer hit rate, read and write combined
system.mem_ctrls2.memoryStateTime::IDLE   20830630000                       # Time in different power states
system.mem_ctrls2.memoryStateTime::REF     3996460000                       # Time in different power states
system.mem_ctrls2.memoryStateTime::PRE_PDN            0                       # Time in different power states
system.mem_ctrls2.memoryStateTime::ACT    94855939000                       # Time in different power states
system.mem_ctrls2.memoryStateTime::ACT_PDN            0                       # Time in different power states
system.mem_ctrls2.actEnergy::0             1183026600                       # Energy for activate commands per rank (pJ)
system.mem_ctrls2.actEnergy::1             1169985600                       # Energy for activate commands per rank (pJ)
system.mem_ctrls2.preEnergy::0              645500625                       # Energy for precharge commands per rank (pJ)
system.mem_ctrls2.preEnergy::1              638385000                       # Energy for precharge commands per rank (pJ)
system.mem_ctrls2.readEnergy::0            2562853800                       # Energy for read commands per rank (pJ)
system.mem_ctrls2.readEnergy::1            2548962000                       # Energy for read commands per rank (pJ)
system.mem_ctrls2.writeEnergy::0            988932240                       # Energy for write commands per rank (pJ)
system.mem_ctrls2.writeEnergy::1            984409200                       # Energy for write commands per rank (pJ)
system.mem_ctrls2.refreshEnergy::0         7817075760                       # Energy for refresh commands per rank (pJ)
system.mem_ctrls2.refreshEnergy::1         7817075760                       # Energy for refresh commands per rank (pJ)
system.mem_ctrls2.actBackEnergy::0        48386334420                       # Energy for active background per rank (pJ)
system.mem_ctrls2.actBackEnergy::1        47876342310                       # Energy for active background per rank (pJ)
system.mem_ctrls2.preBackEnergy::0        29365472250                       # Energy for precharge background per rank (pJ)
system.mem_ctrls2.preBackEnergy::1        29812833750                       # Energy for precharge background per rank (pJ)
system.mem_ctrls2.totalEnergy::0          90949195695                       # Total energy per rank (pJ)
system.mem_ctrls2.totalEnergy::1          90847993620                       # Total energy per rank (pJ)
system.mem_ctrls2.averagePower::0          759.919262                       # Core power per rank (mW)
system.mem_ctrls2.averagePower::1          759.073675                       # Core power per rank (mW)
system.mem_ctrls3.bytes_read::ruby.dir_cntrl3     41947904                       # Number of bytes read from this memory
system.mem_ctrls3.bytes_read::total          41947904                       # Number of bytes read from this memory
system.mem_ctrls3.bytes_written::ruby.dir_cntrl3     19489920                       # Number of bytes written to this memory
system.mem_ctrls3.bytes_written::total       19489920                       # Number of bytes written to this memory
system.mem_ctrls3.num_reads::ruby.dir_cntrl3       655436                       # Number of read requests responded to by this memory
system.mem_ctrls3.num_reads::total             655436                       # Number of read requests responded to by this memory
system.mem_ctrls3.num_writes::ruby.dir_cntrl3       304530                       # Number of write requests responded to by this memory
system.mem_ctrls3.num_writes::total            304530                       # Number of write requests responded to by this memory
system.mem_ctrls3.bw_read::ruby.dir_cntrl3    350479705                       # Total read bandwidth from this memory (bytes/s)
system.mem_ctrls3.bw_read::total            350479705                       # Total read bandwidth from this memory (bytes/s)
system.mem_ctrls3.bw_write::ruby.dir_cntrl3    162840589                       # Write bandwidth from this memory (bytes/s)
system.mem_ctrls3.bw_write::total           162840589                       # Write bandwidth from this memory (bytes/s)
system.mem_ctrls3.bw_total::ruby.dir_cntrl3    513320294                       # Total bandwidth to/from this memory (bytes/s)
system.mem_ctrls3.bw_total::total           513320294                       # Total bandwidth to/from this memory (bytes/s)
system.mem_ctrls3.readReqs                     655436                       # Number of read requests accepted
system.mem_ctrls3.writeReqs                    304530                       # Number of write requests accepted
system.mem_ctrls3.readBursts                   655436                       # Number of DRAM read bursts, including those serviced by the write queue
system.mem_ctrls3.writeBursts                  304530                       # Number of DRAM write bursts, including those merged in the write queue
system.mem_ctrls3.bytesReadDRAM              41928960                       # Total number of bytes read from DRAM
system.mem_ctrls3.bytesReadWrQ                  18944                       # Total number of bytes read from write queue
system.mem_ctrls3.bytesWritten               19489920                       # Total number of bytes written to DRAM
system.mem_ctrls3.bytesReadSys               41947904                       # Total read bytes from the system interface side
system.mem_ctrls3.bytesWrittenSys            19489920                       # Total written bytes from the system interface side
system.mem_ctrls3.servicedByWrQ                   296                       # Number of DRAM read bursts serviced by the write queue
system.mem_ctrls3.mergedWrBursts                    0                       # Number of DRAM write bursts merged with an existing one
system.mem_ctrls3.neitherReadNorWriteReqs            0                       # Number of requests that are neither read nor write
system.mem_ctrls3.perBankRdBursts::0            41152                       # Per bank write bursts
system.mem_ctrls3.perBankRdBursts::1            40893                       # Per bank write bursts
system.mem_ctrls3.perBankRdBursts::2            40615                       # Per bank write bursts
system.mem_ctrls3.perBankRdBursts::3            40743                       # Per bank write bursts
system.mem_ctrls3.perBankRdBursts::4            40677                       # Per bank write bursts
system.mem_ctrls3.perBankRdBursts::5            40906                       # Per bank write bursts
system.mem_ctrls3.perBankRdBursts::6            42009                       # Per bank write bursts
system.mem_ctrls3.perBankRdBursts::7            41457                       # Per bank write bursts
system.mem_ctrls3.perBankRdBursts::8            40774                       # Per bank write bursts
system.mem_ctrls3.perBankRdBursts::9            40574                       # Per bank write bursts
system.mem_ctrls3.perBankRdBursts::10           40637                       # Per bank write bursts
system.mem_ctrls3.perBankRdBursts::11           40778                       # Per bank write bursts
system.mem_ctrls3.perBankRdBursts::12           40606                       # Per bank write bursts
system.mem_ctrls3.perBankRdBursts::13           40555                       # Per bank write bursts
system.mem_ctrls3.perBankRdBursts::14           41457                       # Per bank write bursts
system.mem_ctrls3.perBankRdBursts::15           41307                       # Per bank write bursts
system.mem_ctrls3.perBankWrBursts::0            19114                       # Per bank write bursts
system.mem_ctrls3.perBankWrBursts::1            19018                       # Per bank write bursts
system.mem_ctrls3.perBankWrBursts::2            19038                       # Per bank write bursts
system.mem_ctrls3.perBankWrBursts::3            18927                       # Per bank write bursts
system.mem_ctrls3.perBankWrBursts::4            18973                       # Per bank write bursts
system.mem_ctrls3.perBankWrBursts::5            19058                       # Per bank write bursts
system.mem_ctrls3.perBankWrBursts::6            19226                       # Per bank write bursts
system.mem_ctrls3.perBankWrBursts::7            19318                       # Per bank write bursts
system.mem_ctrls3.perBankWrBursts::8            19022                       # Per bank write bursts
system.mem_ctrls3.perBankWrBursts::9            19055                       # Per bank write bursts
system.mem_ctrls3.perBankWrBursts::10           18910                       # Per bank write bursts
system.mem_ctrls3.perBankWrBursts::11           18869                       # Per bank write bursts
system.mem_ctrls3.perBankWrBursts::12           18854                       # Per bank write bursts
system.mem_ctrls3.perBankWrBursts::13           18900                       # Per bank write bursts
system.mem_ctrls3.perBankWrBursts::14           19160                       # Per bank write bursts
system.mem_ctrls3.perBankWrBursts::15           19088                       # Per bank write bursts
system.mem_ctrls3.numRdRetry                    60662                       # Number of times read queue was full causing retry
system.mem_ctrls3.numWrRetry                    10823                       # Number of times write queue was full causing retry
system.mem_ctrls3.totGap                 119686095500                       # Total gap between requests
system.mem_ctrls3.readPktSize::0                    0                       # Read request sizes (log2)
system.mem_ctrls3.readPktSize::1                    0                       # Read request sizes (log2)
system.mem_ctrls3.readPktSize::2                    0                       # Read request sizes (log2)
system.mem_ctrls3.readPktSize::3                    0                       # Read request sizes (log2)
system.mem_ctrls3.readPktSize::4                    0                       # Read request sizes (log2)
system.mem_ctrls3.readPktSize::5                    0                       # Read request sizes (log2)
system.mem_ctrls3.readPktSize::6               655436                       # Read request sizes (log2)
system.mem_ctrls3.writePktSize::0                   0                       # Write request sizes (log2)
system.mem_ctrls3.writePktSize::1                   0                       # Write request sizes (log2)
system.mem_ctrls3.writePktSize::2                   0                       # Write request sizes (log2)
system.mem_ctrls3.writePktSize::3                   0                       # Write request sizes (log2)
system.mem_ctrls3.writePktSize::4                   0                       # Write request sizes (log2)
system.mem_ctrls3.writePktSize::5                   0                       # Write request sizes (log2)
system.mem_ctrls3.writePktSize::6              304530                       # Write request sizes (log2)
system.mem_ctrls3.rdQLenPdf::0                 170959                       # What read queue length does an incoming req see
system.mem_ctrls3.rdQLenPdf::1                  21893                       # What read queue length does an incoming req see
system.mem_ctrls3.rdQLenPdf::2                  22444                       # What read queue length does an incoming req see
system.mem_ctrls3.rdQLenPdf::3                  23283                       # What read queue length does an incoming req see
system.mem_ctrls3.rdQLenPdf::4                  23743                       # What read queue length does an incoming req see
system.mem_ctrls3.rdQLenPdf::5                  23950                       # What read queue length does an incoming req see
system.mem_ctrls3.rdQLenPdf::6                  23631                       # What read queue length does an incoming req see
system.mem_ctrls3.rdQLenPdf::7                  23146                       # What read queue length does an incoming req see
[...]
system.ruby.L2Cache_Controller.MT_MB.L1_PUTX_old::total           17                      
system.ruby.L2Cache_Controller.MT_MB.L2_Replacement_clean |           0      0.00%      0.00% |           0      0.00%      0.00% |           0      0.00%      0.00% |           0      0.00%      0.00% |           0      0.00%      0.00% |           0      0.00%      0.00% |           0      0.00%      0.00% |           0      0.00%      0.00% |           0      0.00%      0.00% |           0      0.00%      0.00% |           1     50.00%     50.00% |           0      0.00%     50.00% |           0      0.00%     50.00% |           0      0.00%     50.00% |           0      0.00%     50.00% |           0      0.00%     50.00% |           0      0.00%     50.00% |           0      0.00%     50.00% |           0      0.00%     50.00% |           0      0.00%     50.00% |           0      0.00%     50.00% |           1     50.00%    100.00% |           0      0.00%    100.00% |           0      0.00%    100.00% |           0      0.00%    100.00% |           0      0.00%    100.00% |           0      0.00%    100.00% |           0      0.00%    100.00% |           0      0.00%    100.00% |           0      0.00%    100.00% |           0      0.00%    100.00% |           0      0.00%    100.00%
system.ruby.L2Cache_Controller.MT_MB.L2_Replacement_clean::total            2                      
system.ruby.L2Cache_Controller.MT_MB.Exclusive_Unblock |      218704      5.22%      5.22% |      128629      3.07%      8.29% |      127456      3.04%     11.33% |      129538      3.09%     14.42% |      127489      3.04%     17.46% |      126823      3.03%     20.48% |      126832      3.03%     23.51% |      126164      3.01%     26.52% |      126543      3.02%     29.54% |      127079      3.03%     32.57% |      128973      3.08%     35.64% |      127776      3.05%     38.69% |      126320      3.01%     41.70% |      126670      3.02%     44.73% |      125273      2.99%     47.71% |      125254      2.99%     50.70% |      126255      3.01%     53.71% |      126333      3.01%     56.73% |      126683      3.02%     59.75% |      126917      3.03%     62.78% |      126938      3.03%     65.80% |      141491      3.38%     69.18% |      135175      3.22%     72.40% |      125886      3.00%     75.41% |      126326      3.01%     78.42% |      126868      3.03%     81.45% |      126713      3.02%     84.47% |      126681      3.02%     87.49% |      128077      3.06%     90.55% |      127369      3.04%     93.58% |      130920      3.12%     96.71% |      138079      3.29%    100.00%
system.ruby.L2Cache_Controller.MT_MB.Exclusive_Unblock::total      4192234                      
system.ruby.L2Cache_Controller.MT_IIB.L1_GETS |           2     33.33%     33.33% |           0      0.00%     33.33% |           1     16.67%     50.00% |           0      0.00%     50.00% |           0      0.00%     50.00% |           0      0.00%     50.00% |           0      0.00%     50.00% |           0      0.00%     50.00% |           0      0.00%     50.00% |           0      0.00%     50.00% |           0      0.00%     50.00% |           0      0.00%     50.00% |           0      0.00%     50.00% |           0      0.00%     50.00% |           2     33.33%     83.33% |           0      0.00%     83.33% |           0      0.00%     83.33% |           0      0.00%     83.33% |           1     16.67%    100.00% |           0      0.00%    100.00% |           0      0.00%    100.00% |           0      0.00%    100.00% |           0      0.00%    100.00% |           0      0.00%    100.00% |           0      0.00%    100.00% |           0      0.00%    100.00% |           0      0.00%    100.00% |           0      0.00%    100.00% |           0      0.00%    100.00% |           0      0.00%    100.00% |           0      0.00%    100.00% |           0      0.00%    100.00%
system.ruby.L2Cache_Controller.MT_IIB.L1_GETS::total            6                      
system.ruby.L2Cache_Controller.MT_IIB.L1_PUTX |          15      1.60%      1.60% |          23      2.46%      4.06% |          16      1.71%      5.77% |          14      1.50%      7.26% |          13      1.39%      8.65% |          25      2.67%     11.32% |          22      2.35%     13.68% |          26      2.78%     16.45% |          29      3.10%     19.55% |          28      2.99%     22.54% |          21      2.24%     24.79% |          32      3.42%     28.21% |          28      2.99%     31.20% |          46      4.91%     36.11% |          36      3.85%     39.96% |          36      3.85%     43.80% |          37      3.95%     47.76% |          28      2.99%     50.75% |          37      3.95%     54.70% |          39      4.17%     58.87% |          33      3.53%     62.39% |          33      3.53%     65.92% |          45      4.81%     70.73% |          27      2.88%     73.61% |          34      3.63%     77.24% |          33      3.53%     80.77% |          35      3.74%     84.51% |          41      4.38%     88.89% |          27      2.88%     91.77% |          30      3.21%     94.98% |          24      2.56%     97.54% |          23      2.46%    100.00%
system.ruby.L2Cache_Controller.MT_IIB.L1_PUTX::total          936                      
system.ruby.L2Cache_Controller.MT_IIB.WB_Data |           0      0.00%      0.00% |           0      0.00%      0.00% |           0      0.00%      0.00% |           0      0.00%      0.00% |           0      0.00%      0.00% |           0      0.00%      0.00% |           0      0.00%      0.00% |           0      0.00%      0.00% |           0      0.00%      0.00% |           0      0.00%      0.00% |           0      0.00%      0.00% |           0      0.00%      0.00% |           0      0.00%      0.00% |           0      0.00%      0.00% |           0      0.00%      0.00% |           0      0.00%      0.00% |           0      0.00%      0.00% |           0      0.00%      0.00% |           0      0.00%      0.00% |           0      0.00%      0.00% |           0      0.00%      0.00% |           2     40.00%     40.00% |           0      0.00%     40.00% |           0      0.00%     40.00% |           0      0.00%     40.00% |           0      0.00%     40.00% |           1     20.00%     60.00% |           0      0.00%     60.00% |           0      0.00%     60.00% |           0      0.00%     60.00% |           0      0.00%     60.00% |           2     40.00%    100.00%
system.ruby.L2Cache_Controller.MT_IIB.WB_Data::total            5                      
system.ruby.L2Cache_Controller.MT_IIB.WB_Data_clean |        1376      3.19%      3.19% |        1302      3.02%      6.21% |        1270      2.95%      9.16% |        1275      2.96%     12.11% |        1347      3.12%     15.24% |        1320      3.06%     18.30% |        1251      2.90%     21.20% |        1210      2.81%     24.01% |        1167      2.71%     26.71% |        1180      2.74%     29.45% |        1296      3.01%     32.45% |        1333      3.09%     35.54% |        1435      3.33%     38.87% |        1399      3.24%     42.12% |        1336      3.10%     45.22% |        1286      2.98%     48.20% |        1317      3.05%     51.25% |        1382      3.21%     54.46% |        1458      3.38%     57.84% |        1480      3.43%     61.27% |        1444      3.35%     64.62% |        1423      3.30%     67.92% |        1451      3.37%     71.28% |        1388      3.22%     74.50% |        1405      3.26%     77.76% |        1356      3.14%     80.91% |        1418      3.29%     84.20% |        1382      3.21%     87.40% |        1398      3.24%     90.64% |        1361      3.16%     93.80% |        1388      3.22%     97.02% |        1286      2.98%    100.00%
system.ruby.L2Cache_Controller.MT_IIB.WB_Data_clean::total        43120                      
system.ruby.L2Cache_Controller.MT_IIB.Unblock |          52      1.63%      1.63% |          68      2.13%      3.76% |         128      4.01%      7.77% |          75      2.35%     10.12% |          87      2.72%     12.84% |          89      2.79%     15.63% |         104      3.26%     18.89% |          81      2.54%     21.42% |         173      5.42%     26.84% |         157      4.92%     31.76% |         124      3.88%     35.64% |          91      2.85%     38.49% |          85      2.66%     41.15% |         100      3.13%     44.28% |         104      3.26%     47.54% |          91      2.85%     50.39% |          81      2.54%     52.93% |          76      2.38%     55.31% |          92      2.88%     58.19% |          88      2.76%     60.95% |         155      4.85%     65.80% |         104      3.26%     69.06% |         101      3.16%     72.22% |          70      2.19%     74.41% |         102      3.19%     77.61% |          98      3.07%     80.68% |          93      2.91%     83.59% |         107      3.35%     86.94% |         127      3.98%     90.92% |         122      3.82%     94.74% |          75      2.35%     97.09% |          93      2.91%    100.00%
system.ruby.L2Cache_Controller.MT_IIB.Unblock::total         3193                      
system.ruby.L2Cache_Controller.MT_IB.L1_PUTX |           0      0.00%      0.00% |           0      0.00%      0.00% |           0      0.00%      0.00% |           0      0.00%      0.00% |           0      0.00%      0.00% |           0      0.00%      0.00% |           0      0.00%      0.00% |           0      0.00%      0.00% |           0      0.00%      0.00% |           0      0.00%      0.00% |           0      0.00%      0.00% |           0      0.00%      0.00% |           0      0.00%      0.00% |           0      0.00%      0.00% |           0      0.00%      0.00% |           0      0.00%      0.00% |           0      0.00%      0.00% |           1     33.33%     33.33% |           0      0.00%     33.33% |           0      0.00%     33.33% |           0      0.00%     33.33% |           0      0.00%     33.33% |           1     33.33%     66.67% |           0      0.00%     66.67% |           0      0.00%     66.67% |           0      0.00%     66.67% |           0      0.00%     66.67% |           0      0.00%     66.67% |           0      0.00%     66.67% |           0      0.00%     66.67% |           0      0.00%     66.67% |           1     33.33%    100.00%
system.ruby.L2Cache_Controller.MT_IB.L1_PUTX::total            3                      
system.ruby.L2Cache_Controller.MT_IB.WB_Data_clean |          52      1.63%      1.63% |          68      2.13%      3.76% |         128      4.01%      7.77% |          75      2.35%     10.12% |          87      2.72%     12.84% |          89      2.79%     15.63% |         104      3.26%     18.89% |          81      2.54%     21.42% |         173      5.42%     26.84% |         157      4.92%     31.76% |         124      3.88%     35.64% |          91      2.85%     38.49% |          85      2.66%     41.15% |         100      3.13%     44.28% |         104      3.26%     47.54% |          91      2.85%     50.39% |          81      2.54%     52.93% |          76      2.38%     55.31% |          92      2.88%     58.19% |          88      2.76%     60.95% |         155      4.85%     65.80% |         104      3.26%     69.06% |         101      3.16%     72.22% |          70      2.19%     74.41% |         102      3.19%     77.61% |          98      3.07%     80.68% |          93      2.91%     83.59% |         107      3.35%     86.94% |         127      3.98%     90.92% |         122      3.82%     94.74% |          75      2.35%     97.09% |          93      2.91%    100.00%
system.ruby.L2Cache_Controller.MT_IB.WB_Data_clean::total         3193                      
system.ruby.L2Cache_Controller.MT_SB.L1_PUTX |           1      2.63%      2.63% |           1      2.63%      5.26% |           0      0.00%      5.26% |           0      0.00%      5.26% |           0      0.00%      5.26% |           1      2.63%      7.89% |           1      2.63%     10.53% |           2      5.26%     15.79% |           1      2.63%     18.42% |           0      0.00%     18.42% |           2      5.26%     23.68% |           2      5.26%     28.95% |           4     10.53%     39.47% |           2      5.26%     44.74% |           2      5.26%     50.00% |           2      5.26%     55.26% |           1      2.63%     57.89% |           1      2.63%     60.53% |           0      0.00%     60.53% |           1      2.63%     63.16% |           0      0.00%     63.16% |           2      5.26%     68.42% |           2      5.26%     73.68% |           1      2.63%     76.32% |           4     10.53%     86.84% |           1      2.63%     89.47% |           1      2.63%     92.11% |           0      0.00%     92.11% |           1      2.63%     94.74% |           0      0.00%     94.74% |           2      5.26%    100.00% |           0      0.00%    100.00%
system.ruby.L2Cache_Controller.MT_SB.L1_PUTX::total           38                      
system.ruby.L2Cache_Controller.MT_SB.Unblock |        1376      3.19%      3.19% |        1302      3.02%      6.21% |        1270      2.94%      9.15% |        1275      2.96%     12.11% |        1347      3.12%     15.23% |        1320      3.06%     18.30% |        1251      2.90%     21.20% |        1210      2.81%     24.00% |        1167      2.71%     26.71% |        1180      2.74%     29.44% |        1296      3.01%     32.45% |        1333      3.09%     35.54% |        1435      3.33%     38.87% |        1399      3.24%     42.11% |        1336      3.10%     45.21% |        1286      2.98%     48.19% |        1317      3.05%     51.25% |        1382      3.20%     54.45% |        1458      3.38%     57.83% |        1480      3.43%     61.26% |        1444      3.35%     64.61% |        1425      3.30%     67.92% |        1451      3.36%     71.28% |        1388      3.22%     74.50% |        1405      3.26%     77.76% |        1356      3.14%     80.90% |        1419      3.29%     84.19% |        1382      3.20%     87.40% |        1398      3.24%     90.64% |        1361      3.16%     93.79% |        1388      3.22%     97.01% |        1288      2.99%    100.00%
system.ruby.L2Cache_Controller.MT_SB.Unblock::total        43125                      
system.ruby.SimicsNetworkPortInterface_Controller.MessageSend |      745370     20.54%     20.54% |     1814071     50.00%     70.54% |      136338      3.76%     74.30% |      136685      3.77%     78.07% |      132783      3.66%     81.73% |      138629      3.82%     85.55% |      130162      3.59%     89.14% |      135570      3.74%     92.87% |      130580      3.60%     96.47% |      127954      3.53%    100.00% |           0      0.00%    100.00% |           0      0.00%    100.00% |           0      0.00%    100.00% |           0      0.00%    100.00% |           0      0.00%    100.00% |           0      0.00%    100.00% |           0      0.00%    100.00% |           0      0.00%    100.00% |           0      0.00%    100.00% |           0      0.00%    100.00% |           0      0.00%    100.00% |           0      0.00%    100.00% |           0      0.00%    100.00% |           0      0.00%    100.00% |           0      0.00%    100.00% |           0      0.00%    100.00% |           0      0.00%    100.00% |           0      0.00%    100.00% |           0      0.00%    100.00% |           0      0.00%    100.00% |           0      0.00%    100.00% |           0      0.00%    100.00%
system.ruby.SimicsNetworkPortInterface_Controller.MessageSend::total      3628142                      
system.ruby.SimicsNetworkPortInterface_Controller.MessageRecv |      745370     20.54%     20.54% |     1814071     50.00%     70.54% |      136338      3.76%     74.30% |      136685      3.77%     78.07% |      132783      3.66%     81.73% |      138629      3.82%     85.55% |      130162      3.59%     89.14% |      135570      3.74%     92.87% |      130580      3.60%     96.47% |      127954      3.53%    100.00% |           0      0.00%    100.00% |           0      0.00%    100.00% |           0      0.00%    100.00% |           0      0.00%    100.00% |           0      0.00%    100.00% |           0      0.00%    100.00% |           0      0.00%    100.00% |           0      0.00%    100.00% |           0      0.00%    100.00% |           0      0.00%    100.00% |           0      0.00%    100.00% |           0      0.00%    100.00% |           0      0.00%    100.00% |           0      0.00%    100.00% |           0      0.00%    100.00% |           0      0.00%    100.00% |           0      0.00%    100.00% |           0      0.00%    100.00% |           0      0.00%    100.00% |           0      0.00%    100.00% |           0      0.00%    100.00% |           0      0.00%    100.00%
system.ruby.SimicsNetworkPortInterface_Controller.MessageRecv::total      3628142                      
system.ruby.SimicsNetworkPortInterface_Controller.A.MessageSend |      745370     20.54%     20.54% |     1814071     50.00%     70.54% |      136338      3.76%     74.30% |      136685      3.77%     78.07% |      132783      3.66%     81.73% |      138629      3.82%     85.55% |      130162      3.59%     89.14% |      135570      3.74%     92.87% |      130580      3.60%     96.47% |      127954      3.53%    100.00% |           0      0.00%    100.00% |           0      0.00%    100.00% |           0      0.00%    100.00% |           0      0.00%    100.00% |           0      0.00%    100.00% |           0      0.00%    100.00% |           0      0.00%    100.00% |           0      0.00%    100.00% |           0      0.00%    100.00% |           0      0.00%    100.00% |           0      0.00%    100.00% |           0      0.00%    100.00% |           0      0.00%    100.00% |           0      0.00%    100.00% |           0      0.00%    100.00% |           0      0.00%    100.00% |           0      0.00%    100.00% |           0      0.00%    100.00% |           0      0.00%    100.00% |           0      0.00%    100.00% |           0      0.00%    100.00% |           0      0.00%    100.00%
system.ruby.SimicsNetworkPortInterface_Controller.A.MessageSend::total      3628142                      
system.ruby.SimicsNetworkPortInterface_Controller.A.MessageRecv |      745370     20.54%     20.54% |     1814071     50.00%     70.54% |      136338      3.76%     74.30% |      136685      3.77%     78.07% |      132783      3.66%     81.73% |      138629      3.82%     85.55% |      130162      3.59%     89.14% |      135570      3.74%     92.87% |      130580      3.60%     96.47% |      127954      3.53%    100.00% |           0      0.00%    100.00% |           0      0.00%    100.00% |           0      0.00%    100.00% |           0      0.00%    100.00% |           0      0.00%    100.00% |           0      0.00%    100.00% |           0      0.00%    100.00% |           0      0.00%    100.00% |           0      0.00%    100.00% |           0      0.00%    100.00% |           0      0.00%    100.00% |           0      0.00%    100.00% |           0      0.00%    100.00% |           0      0.00%    100.00% |           0      0.00%    100.00% |           0      0.00%    100.00% |           0      0.00%    100.00% |           0      0.00%    100.00% |           0      0.00%    100.00% |           0      0.00%    100.00% |           0      0.00%    100.00% |           0      0.00%    100.00%
system.ruby.SimicsNetworkPortInterface_Controller.A.MessageRecv::total      3628142                      
system.switch_cpus.kern.inst.arm                    0                       # number of arm instructions executed
system.switch_cpus.kern.inst.quiesce                0                       # number of quiesce instructions executed

---------- End Simulation Statistics   ----------
