
---------- Begin Simulation Statistics ----------
sim_seconds                                  0.057159                       # Number of seconds simulated
sim_ticks                                 57159281000                       # Number of ticks simulated
final_tick                               5233327359500                       # Number of ticks from beginning of simulation (restored from checkpoints and never reset)
sim_freq                                 1000000000000                       # Frequency of simulated ticks
host_inst_rate                                  55094                       # Simulator instruction rate (inst/s)
host_op_rate                                    97420                       # Simulator op (including micro ops) rate (op/s)
host_tick_rate                              135915288                       # Simulator tick rate (ticks/s)
host_mem_usage                                4050652                       # Number of bytes of host memory used
host_seconds                                   420.55                       # Real time elapsed on the host
sim_insts                                    23169961                       # Number of instructions simulated
sim_ops                                      40970176                       # Number of ops (including micro ops) simulated
system.voltage_domain.voltage                       1                       # Voltage in Volts
system.clk_domain.clock                           500                       # Clock period in ticks
system.mem_ctrls0.bytes_read::ruby.dir_cntrl0     12634176                       # Number of bytes read from this memory
system.mem_ctrls0.bytes_read::total          12634176                       # Number of bytes read from this memory
system.mem_ctrls0.bytes_written::ruby.dir_cntrl0      8055936                       # Number of bytes written to this memory
system.mem_ctrls0.bytes_written::total        8055936                       # Number of bytes written to this memory
system.mem_ctrls0.num_reads::ruby.dir_cntrl0       197409                       # Number of read requests responded to by this memory
system.mem_ctrls0.num_reads::total             197409                       # Number of read requests responded to by this memory
system.mem_ctrls0.num_writes::ruby.dir_cntrl0       125874                       # Number of write requests responded to by this memory
system.mem_ctrls0.num_writes::total            125874                       # Number of write requests responded to by this memory
system.mem_ctrls0.bw_read::ruby.dir_cntrl0    221034551                       # Total read bandwidth from this memory (bytes/s)
system.mem_ctrls0.bw_read::total            221034551                       # Total read bandwidth from this memory (bytes/s)
system.mem_ctrls0.bw_write::ruby.dir_cntrl0    140938372                       # Write bandwidth from this memory (bytes/s)
system.mem_ctrls0.bw_write::total           140938372                       # Write bandwidth from this memory (bytes/s)
system.mem_ctrls0.bw_total::ruby.dir_cntrl0    361972923                       # Total bandwidth to/from this memory (bytes/s)
system.mem_ctrls0.bw_total::total           361972923                       # Total bandwidth to/from this memory (bytes/s)
system.mem_ctrls0.readReqs                     197409                       # Number of read requests accepted
system.mem_ctrls0.writeReqs                    125874                       # Number of write requests accepted
system.mem_ctrls0.readBursts                   197409                       # Number of DRAM read bursts, including those serviced by the write queue
system.mem_ctrls0.writeBursts                  125874                       # Number of DRAM write bursts, including those merged in the write queue
system.mem_ctrls0.bytesReadDRAM              12632448                       # Total number of bytes read from DRAM
system.mem_ctrls0.bytesReadWrQ                   1728                       # Total number of bytes read from write queue
system.mem_ctrls0.bytesWritten                8055808                       # Total number of bytes written to DRAM
system.mem_ctrls0.bytesReadSys               12634176                       # Total read bytes from the system interface side
system.mem_ctrls0.bytesWrittenSys             8055936                       # Total written bytes from the system interface side
system.mem_ctrls0.servicedByWrQ                    27                       # Number of DRAM read bursts serviced by the write queue
system.mem_ctrls0.mergedWrBursts                    0                       # Number of DRAM write bursts merged with an existing one
system.mem_ctrls0.neitherReadNorWriteReqs            0                       # Number of requests that are neither read nor write
system.mem_ctrls0.perBankRdBursts::0            12094                       # Per bank write bursts
system.mem_ctrls0.perBankRdBursts::1            12180                       # Per bank write bursts
system.mem_ctrls0.perBankRdBursts::2            12074                       # Per bank write bursts
system.mem_ctrls0.perBankRdBursts::3            12432                       # Per bank write bursts
system.mem_ctrls0.perBankRdBursts::4            12206                       # Per bank write bursts
system.mem_ctrls0.perBankRdBursts::5            12288                       # Per bank write bursts
system.mem_ctrls0.perBankRdBursts::6            12525                       # Per bank write bursts
system.mem_ctrls0.perBankRdBursts::7            12654                       # Per bank write bursts
system.mem_ctrls0.perBankRdBursts::8            12440                       # Per bank write bursts
system.mem_ctrls0.perBankRdBursts::9            12795                       # Per bank write bursts
system.mem_ctrls0.perBankRdBursts::10           12424                       # Per bank write bursts
system.mem_ctrls0.perBankRdBursts::11           12746                       # Per bank write bursts
system.mem_ctrls0.perBankRdBursts::12           12258                       # Per bank write bursts
system.mem_ctrls0.perBankRdBursts::13           12045                       # Per bank write bursts
system.mem_ctrls0.perBankRdBursts::14           12313                       # Per bank write bursts
system.mem_ctrls0.perBankRdBursts::15           11908                       # Per bank write bursts
system.mem_ctrls0.perBankWrBursts::0             7802                       # Per bank write bursts
system.mem_ctrls0.perBankWrBursts::1             7679                       # Per bank write bursts
system.mem_ctrls0.perBankWrBursts::2             7838                       # Per bank write bursts
system.mem_ctrls0.perBankWrBursts::3             7886                       # Per bank write bursts
system.mem_ctrls0.perBankWrBursts::4             7810                       # Per bank write bursts
system.mem_ctrls0.perBankWrBursts::5             7916                       # Per bank write bursts
system.mem_ctrls0.perBankWrBursts::6             8003                       # Per bank write bursts
system.mem_ctrls0.perBankWrBursts::7             8043                       # Per bank write bursts
system.mem_ctrls0.perBankWrBursts::8             7939                       # Per bank write bursts
system.mem_ctrls0.perBankWrBursts::9             8076                       # Per bank write bursts
system.mem_ctrls0.perBankWrBursts::10            7891                       # Per bank write bursts
system.mem_ctrls0.perBankWrBursts::11            7895                       # Per bank write bursts
system.mem_ctrls0.perBankWrBursts::12            7761                       # Per bank write bursts
system.mem_ctrls0.perBankWrBursts::13            7818                       # Per bank write bursts
system.mem_ctrls0.perBankWrBursts::14            7888                       # Per bank write bursts
system.mem_ctrls0.perBankWrBursts::15            7627                       # Per bank write bursts
system.mem_ctrls0.numRdRetry                    16582                       # Number of times read queue was full causing retry
system.mem_ctrls0.numWrRetry                     5741                       # Number of times write queue was full causing retry
system.mem_ctrls0.totGap                  57158553000                       # Total gap between requests
system.mem_ctrls0.readPktSize::0                    0                       # Read request sizes (log2)
system.mem_ctrls0.readPktSize::1                    0                       # Read request sizes (log2)
system.mem_ctrls0.readPktSize::2                    0                       # Read request sizes (log2)
system.mem_ctrls0.readPktSize::3                    0                       # Read request sizes (log2)
system.mem_ctrls0.readPktSize::4                    0                       # Read request sizes (log2)
system.mem_ctrls0.readPktSize::5                    0                       # Read request sizes (log2)
system.mem_ctrls0.readPktSize::6               197409                       # Read request sizes (log2)
system.mem_ctrls0.writePktSize::0                   0                       # Write request sizes (log2)
system.mem_ctrls0.writePktSize::1                   0                       # Write request sizes (log2)
system.mem_ctrls0.writePktSize::2                   0                       # Write request sizes (log2)
system.mem_ctrls0.writePktSize::3                   0                       # Write request sizes (log2)
system.mem_ctrls0.writePktSize::4                   0                       # Write request sizes (log2)
system.mem_ctrls0.writePktSize::5                   0                       # Write request sizes (log2)
system.mem_ctrls0.writePktSize::6              125874                       # Write request sizes (log2)
system.mem_ctrls0.rdQLenPdf::0                  74301                       # What read queue length does an incoming req see
system.mem_ctrls0.rdQLenPdf::1                   9613                       # What read queue length does an incoming req see
system.mem_ctrls0.rdQLenPdf::2                   8367                       # What read queue length does an incoming req see
system.mem_ctrls0.rdQLenPdf::3                   7402                       # What read queue length does an incoming req see
system.mem_ctrls0.rdQLenPdf::4                   7078                       # What read queue length does an incoming req see
system.mem_ctrls0.rdQLenPdf::5                   6835                       # What read queue length does an incoming req see
system.mem_ctrls0.rdQLenPdf::6                   6518                       # What read queue length does an incoming req see
system.mem_ctrls0.rdQLenPdf::7                   5993                       # What read queue length does an incoming req see
system.mem_ctrls0.rdQLenPdf::8                   5546                       # What read queue length does an incoming req see
system.mem_ctrls0.rdQLenPdf::9                   4916                       # What read queue length does an incoming req see
system.mem_ctrls0.rdQLenPdf::10                  4357                       # What read queue length does an incoming req see
system.mem_ctrls0.rdQLenPdf::11                  3999                       # What read queue length does an incoming req see
system.mem_ctrls0.rdQLenPdf::12                  3633                       # What read queue length does an incoming req see
system.mem_ctrls0.rdQLenPdf::13                  3358                       # What read queue length does an incoming req see
system.mem_ctrls0.rdQLenPdf::14                  2920                       # What read queue length does an incoming req see
system.mem_ctrls0.rdQLenPdf::15                  2630                       # What read queue length does an incoming req see
system.mem_ctrls0.rdQLenPdf::16                  2382                       # What read queue length does an incoming req see
system.mem_ctrls0.rdQLenPdf::17                  2169                       # What read queue length does an incoming req see
system.mem_ctrls0.rdQLenPdf::18                  1967                       # What read queue length does an incoming req see
system.mem_ctrls0.rdQLenPdf::19                  1877                       # What read queue length does an incoming req see
system.mem_ctrls0.rdQLenPdf::20                  1713                       # What read queue length does an incoming req see
system.mem_ctrls0.rdQLenPdf::21                  1502                       # What read queue length does an incoming req see
system.mem_ctrls0.rdQLenPdf::22                  1369                       # What read queue length does an incoming req see
system.mem_ctrls0.rdQLenPdf::23                  1281                       # What read queue length does an incoming req see
system.mem_ctrls0.rdQLenPdf::24                  1224                       # What read queue length does an incoming req see
system.mem_ctrls0.rdQLenPdf::25                  1125                       # What read queue length does an incoming req see
system.mem_ctrls0.rdQLenPdf::26                  1032                       # What read queue length does an incoming req see
system.mem_ctrls0.rdQLenPdf::27                  1037                       # What read queue length does an incoming req see
system.mem_ctrls0.rdQLenPdf::28                   982                       # What read queue length does an incoming req see
system.mem_ctrls0.rdQLenPdf::29                  1021                       # What read queue length does an incoming req see
system.mem_ctrls0.rdQLenPdf::30                  1112                       # What read queue length does an incoming req see
system.mem_ctrls0.rdQLenPdf::31                 18123                       # What read queue length does an incoming req see
system.mem_ctrls0.wrQLenPdf::0                  18047                       # What write queue length does an incoming req see
system.mem_ctrls0.wrQLenPdf::1                  20277                       # What write queue length does an incoming req see
system.mem_ctrls0.wrQLenPdf::2                  21158                       # What write queue length does an incoming req see
system.mem_ctrls0.wrQLenPdf::3                  21386                       # What write queue length does an incoming req see
system.mem_ctrls0.wrQLenPdf::4                  21407                       # What write queue length does an incoming req see
system.mem_ctrls0.wrQLenPdf::5                   6401                       # What write queue length does an incoming req see
system.mem_ctrls0.wrQLenPdf::6                   6478                       # What write queue length does an incoming req see
system.mem_ctrls0.wrQLenPdf::7                  10720                       # What write queue length does an incoming req see
system.mem_ctrls0.bytesPerActivate::samples        83378                       # Bytes accessed per row activation
system.mem_ctrls0.bytesPerActivate::mean   248.126076                       # Bytes accessed per row activation
system.mem_ctrls0.bytesPerActivate::gmean   175.670011                       # Bytes accessed per row activation
system.mem_ctrls0.bytesPerActivate::stdev   223.793938                       # Bytes accessed per row activation
system.mem_ctrls0.bytesPerActivate::0-127        25531     30.62%     30.62% # Bytes accessed per row activation
system.mem_ctrls0.bytesPerActivate::128-255        21850     26.21%     56.83% # Bytes accessed per row activation
system.mem_ctrls0.bytesPerActivate::256-383        21455     25.73%     82.56% # Bytes accessed per row activation
system.mem_ctrls0.bytesPerActivate::384-511         4638      5.56%     88.12% # Bytes accessed per row activation
system.mem_ctrls0.bytesPerActivate::512-639         3635      4.36%     92.48% # Bytes accessed per row activation
system.mem_ctrls0.bytesPerActivate::640-767         1625      1.95%     94.43% # Bytes accessed per row activation
system.mem_ctrls0.bytesPerActivate::768-895         1213      1.45%     95.89% # Bytes accessed per row activation
system.mem_ctrls0.bytesPerActivate::896-1023          796      0.95%     96.84% # Bytes accessed per row activation
system.mem_ctrls0.bytesPerActivate::1024-1151         2635      3.16%    100.00% # Bytes accessed per row activation
system.mem_ctrls0.bytesPerActivate::total        83378                       # Bytes accessed per row activation
system.mem_ctrls0.rdPerTurnAround::samples        18832                       # Reads before turning the bus around for writes
system.mem_ctrls0.rdPerTurnAround::mean     10.480724                       # Reads before turning the bus around for writes
system.mem_ctrls0.rdPerTurnAround::stdev    30.926333                       # Reads before turning the bus around for writes
system.mem_ctrls0.rdPerTurnAround::0-127        18824     99.96%     99.96% # Reads before turning the bus around for writes
system.mem_ctrls0.rdPerTurnAround::128-255            7      0.04%     99.99% # Reads before turning the bus around for writes
system.mem_ctrls0.rdPerTurnAround::3968-4095            1      0.01%    100.00% # Reads before turning the bus around for writes
system.mem_ctrls0.rdPerTurnAround::total        18832                       # Reads before turning the bus around for writes
system.mem_ctrls0.wrPerTurnAround::samples        18832                       # Writes before turning the bus around for reads
system.mem_ctrls0.wrPerTurnAround::mean      6.683942                       # Writes before turning the bus around for reads
system.mem_ctrls0.wrPerTurnAround::gmean     6.162302                       # Writes before turning the bus around for reads
system.mem_ctrls0.wrPerTurnAround::stdev     3.221776                       # Writes before turning the bus around for reads
system.mem_ctrls0.wrPerTurnAround::4-7          14658     77.84%     77.84% # Writes before turning the bus around for reads
system.mem_ctrls0.wrPerTurnAround::8-11          2017     10.71%     88.55% # Writes before turning the bus around for reads
system.mem_ctrls0.wrPerTurnAround::12-15         1096      5.82%     94.37% # Writes before turning the bus around for reads
system.mem_ctrls0.wrPerTurnAround::16-19         1061      5.63%    100.00% # Writes before turning the bus around for reads
system.mem_ctrls0.wrPerTurnAround::total        18832                       # Writes before turning the bus around for reads
system.mem_ctrls0.totQLat                 19027837312                       # Total ticks spent queuing
system.mem_ctrls0.totMemAccLat            22728749812                       # Total ticks spent from burst creation until serviced by the DRAM
system.mem_ctrls0.totBusLat                 986910000                       # Total ticks spent in databus transfers
system.mem_ctrls0.avgQLat                    96401.08                       # Average queueing delay per DRAM burst
system.mem_ctrls0.avgBusLat                   5000.00                       # Average bus latency per DRAM burst
system.mem_ctrls0.avgMemAccLat              115151.08                       # Average memory access latency per DRAM burst
system.mem_ctrls0.avgRdBW                      221.00                       # Average DRAM read bandwidth in MiByte/s
system.mem_ctrls0.avgWrBW                      140.94                       # Average achieved write bandwidth in MiByte/s
system.mem_ctrls0.avgRdBWSys                   221.03                       # Average system read bandwidth in MiByte/s
system.mem_ctrls0.avgWrBWSys                   140.94                       # Average system write bandwidth in MiByte/s
system.mem_ctrls0.peakBW                     12800.00                       # Theoretical peak bandwidth in MiByte/s
system.mem_ctrls0.busUtil                        2.83                       # Data bus utilization in percentage
system.mem_ctrls0.busUtilRead                    1.73                       # Data bus utilization in percentage for reads
system.mem_ctrls0.busUtilWrite                   1.10                       # Data bus utilization in percentage for writes
system.mem_ctrls0.avgRdQLen                      1.37                       # Average read queue length when enqueuing
system.mem_ctrls0.avgWrQLen                      2.92                       # Average write queue length when enqueuing
system.mem_ctrls0.readRowHits                  154193                       # Number of row buffer hits during reads
system.mem_ctrls0.writeRowHits                  85683                       # Number of row buffer hits during writes
system.mem_ctrls0.readRowHitRate                78.12                       # Row buffer hit rate for reads
system.mem_ctrls0.writeRowHitRate               68.07                       # Row buffer hit rate for writes
system.mem_ctrls0.avgGap                    176806.55                       # Average gap between requests
system.mem_ctrls0.pageHitRate                   74.21                       # Row buffer hit rate, read and write combined
system.mem_ctrls0.memoryStateTime::IDLE   11628454750                       # Time in different power states
system.mem_ctrls0.memoryStateTime::REF     1908660000                       # Time in different power states
system.mem_ctrls0.memoryStateTime::PRE_PDN            0                       # Time in different power states
system.mem_ctrls0.memoryStateTime::ACT    43622020250                       # Time in different power states
system.mem_ctrls0.memoryStateTime::ACT_PDN            0                       # Time in different power states
system.mem_ctrls0.actEnergy::0              316559880                       # Energy for activate commands per rank (pJ)
system.mem_ctrls0.actEnergy::1              313777800                       # Energy for activate commands per rank (pJ)
system.mem_ctrls0.preEnergy::0              172726125                       # Energy for precharge commands per rank (pJ)
system.mem_ctrls0.preEnergy::1              171208125                       # Energy for precharge commands per rank (pJ)
system.mem_ctrls0.readEnergy::0             767933400                       # Energy for read commands per rank (pJ)
system.mem_ctrls0.readEnergy::1             771646200                       # Energy for read commands per rank (pJ)
system.mem_ctrls0.writeEnergy::0            408090960                       # Energy for write commands per rank (pJ)
system.mem_ctrls0.writeEnergy::1            407559600                       # Energy for write commands per rank (pJ)
system.mem_ctrls0.refreshEnergy::0         3733338960                       # Energy for refresh commands per rank (pJ)
system.mem_ctrls0.refreshEnergy::1         3733338960                       # Energy for refresh commands per rank (pJ)
system.mem_ctrls0.actBackEnergy::0        22600965690                       # Energy for active background per rank (pJ)
system.mem_ctrls0.actBackEnergy::1        22077650115                       # Energy for active background per rank (pJ)
system.mem_ctrls0.preBackEnergy::0        14470064250                       # Energy for precharge background per rank (pJ)
system.mem_ctrls0.preBackEnergy::1        14929113000                       # Energy for precharge background per rank (pJ)
system.mem_ctrls0.totalEnergy::0          42469679265                       # Total energy per rank (pJ)
system.mem_ctrls0.totalEnergy::1          42404293800                       # Total energy per rank (pJ)
system.mem_ctrls0.averagePower::0          743.007911                       # Core power per rank (mW)
system.mem_ctrls0.averagePower::1          741.863991                       # Core power per rank (mW)
system.mem_ctrls1.bytes_read::ruby.dir_cntrl1     12406656                       # Number of bytes read from this memory
system.mem_ctrls1.bytes_read::total          12406656                       # Number of bytes read from this memory
system.mem_ctrls1.bytes_written::ruby.dir_cntrl1      7838464                       # Number of bytes written to this memory
system.mem_ctrls1.bytes_written::total        7838464                       # Number of bytes written to this memory
system.mem_ctrls1.num_reads::ruby.dir_cntrl1       193854                       # Number of read requests responded to by this memory
system.mem_ctrls1.num_reads::total             193854                       # Number of read requests responded to by this memory
system.mem_ctrls1.num_writes::ruby.dir_cntrl1       122476                       # Number of write requests responded to by this memory
system.mem_ctrls1.num_writes::total            122476                       # Number of write requests responded to by this memory
system.mem_ctrls1.bw_read::ruby.dir_cntrl1    217054095                       # Total read bandwidth from this memory (bytes/s)
system.mem_ctrls1.bw_read::total            217054095                       # Total read bandwidth from this memory (bytes/s)
system.mem_ctrls1.bw_write::ruby.dir_cntrl1    137133705                       # Write bandwidth from this memory (bytes/s)
system.mem_ctrls1.bw_write::total           137133705                       # Write bandwidth from this memory (bytes/s)
system.mem_ctrls1.bw_total::ruby.dir_cntrl1    354187800                       # Total bandwidth to/from this memory (bytes/s)
system.mem_ctrls1.bw_total::total           354187800                       # Total bandwidth to/from this memory (bytes/s)
system.mem_ctrls1.readReqs                     193854                       # Number of read requests accepted
system.mem_ctrls1.writeReqs                    122476                       # Number of write requests accepted
system.mem_ctrls1.readBursts                   193854                       # Number of DRAM read bursts, including those serviced by the write queue
system.mem_ctrls1.writeBursts                  122476                       # Number of DRAM write bursts, including those merged in the write queue
system.mem_ctrls1.bytesReadDRAM              12404800                       # Total number of bytes read from DRAM
system.mem_ctrls1.bytesReadWrQ                   1856                       # Total number of bytes read from write queue
system.mem_ctrls1.bytesWritten                7838336                       # Total number of bytes written to DRAM
system.mem_ctrls1.bytesReadSys               12406656                       # Total read bytes from the system interface side
system.mem_ctrls1.bytesWrittenSys             7838464                       # Total written bytes from the system interface side
system.mem_ctrls1.servicedByWrQ                    29                       # Number of DRAM read bursts serviced by the write queue
system.mem_ctrls1.mergedWrBursts                    0                       # Number of DRAM write bursts merged with an existing one
system.mem_ctrls1.neitherReadNorWriteReqs            0                       # Number of requests that are neither read nor write
system.mem_ctrls1.perBankRdBursts::0            11882                       # Per bank write bursts
system.mem_ctrls1.perBankRdBursts::1            11957                       # Per bank write bursts
system.mem_ctrls1.perBankRdBursts::2            11847                       # Per bank write bursts
system.mem_ctrls1.perBankRdBursts::3            12194                       # Per bank write bursts
system.mem_ctrls1.perBankRdBursts::4            12002                       # Per bank write bursts
system.mem_ctrls1.perBankRdBursts::5            12100                       # Per bank write bursts
system.mem_ctrls1.perBankRdBursts::6            12338                       # Per bank write bursts
system.mem_ctrls1.perBankRdBursts::7            12447                       # Per bank write bursts
system.mem_ctrls1.perBankRdBursts::8            12204                       # Per bank write bursts
system.mem_ctrls1.perBankRdBursts::9            12566                       # Per bank write bursts
system.mem_ctrls1.perBankRdBursts::10           12189                       # Per bank write bursts
system.mem_ctrls1.perBankRdBursts::11           12555                       # Per bank write bursts
system.mem_ctrls1.perBankRdBursts::12           12031                       # Per bank write bursts
system.mem_ctrls1.perBankRdBursts::13           11810                       # Per bank write bursts
system.mem_ctrls1.perBankRdBursts::14           11993                       # Per bank write bursts
system.mem_ctrls1.perBankRdBursts::15           11710                       # Per bank write bursts
system.mem_ctrls1.perBankWrBursts::0             7599                       # Per bank write bursts
system.mem_ctrls1.perBankWrBursts::1             7488                       # Per bank write bursts
system.mem_ctrls1.perBankWrBursts::2             7635                       # Per bank write bursts
system.mem_ctrls1.perBankWrBursts::3             7675                       # Per bank write bursts
system.mem_ctrls1.perBankWrBursts::4             7611                       # Per bank write bursts
system.mem_ctrls1.perBankWrBursts::5             7718                       # Per bank write bursts
system.mem_ctrls1.perBankWrBursts::6             7780                       # Per bank write bursts
system.mem_ctrls1.perBankWrBursts::7             7823                       # Per bank write bursts
system.mem_ctrls1.perBankWrBursts::8             7725                       # Per bank write bursts
system.mem_ctrls1.perBankWrBursts::9             7860                       # Per bank write bursts
system.mem_ctrls1.perBankWrBursts::10            7674                       # Per bank write bursts
system.mem_ctrls1.perBankWrBursts::11            7682                       # Per bank write bursts
system.mem_ctrls1.perBankWrBursts::12            7553                       # Per bank write bursts
system.mem_ctrls1.perBankWrBursts::13            7603                       # Per bank write bursts
system.mem_ctrls1.perBankWrBursts::14            7619                       # Per bank write bursts
system.mem_ctrls1.perBankWrBursts::15            7429                       # Per bank write bursts
system.mem_ctrls1.numRdRetry                    15132                       # Number of times read queue was full causing retry
system.mem_ctrls1.numWrRetry                     5425                       # Number of times write queue was full causing retry
system.mem_ctrls1.totGap                  57158275000                       # Total gap between requests
system.mem_ctrls1.readPktSize::0                    0                       # Read request sizes (log2)
system.mem_ctrls1.readPktSize::1                    0                       # Read request sizes (log2)
system.mem_ctrls1.readPktSize::2                    0                       # Read request sizes (log2)
system.mem_ctrls1.readPktSize::3                    0                       # Read request sizes (log2)
system.mem_ctrls1.readPktSize::4                    0                       # Read request sizes (log2)
system.mem_ctrls1.readPktSize::5                    0                       # Read request sizes (log2)
system.mem_ctrls1.readPktSize::6               193854                       # Read request sizes (log2)
system.mem_ctrls1.writePktSize::0                   0                       # Write request sizes (log2)
system.mem_ctrls1.writePktSize::1                   0                       # Write request sizes (log2)
system.mem_ctrls1.writePktSize::2                   0                       # Write request sizes (log2)
system.mem_ctrls1.writePktSize::3                   0                       # Write request sizes (log2)
system.mem_ctrls1.writePktSize::4                   0                       # Write request sizes (log2)
system.mem_ctrls1.writePktSize::5                   0                       # Write request sizes (log2)
system.mem_ctrls1.writePktSize::6              122476                       # Write request sizes (log2)
system.mem_ctrls1.rdQLenPdf::0                  73256                       # What read queue length does an incoming req see
system.mem_ctrls1.rdQLenPdf::1                   8532                       # What read queue length does an incoming req see
system.mem_ctrls1.rdQLenPdf::2                   8005                       # What read queue length does an incoming req see
system.mem_ctrls1.rdQLenPdf::3                   7746                       # What read queue length does an incoming req see
system.mem_ctrls1.rdQLenPdf::4                   7366                       # What read queue length does an incoming req see
system.mem_ctrls1.rdQLenPdf::5                   7075                       # What read queue length does an incoming req see
system.mem_ctrls1.rdQLenPdf::6                   6466                       # What read queue length does an incoming req see
system.mem_ctrls1.rdQLenPdf::7                   6122                       # What read queue length does an incoming req see
system.mem_ctrls1.rdQLenPdf::8                   5529                       # What read queue length does an incoming req see
system.mem_ctrls1.rdQLenPdf::9                   4975                       # What read queue length does an incoming req see
system.mem_ctrls1.rdQLenPdf::10                  4466                       # What read queue length does an incoming req see
system.mem_ctrls1.rdQLenPdf::11                  3994                       # What read queue length does an incoming req see
system.mem_ctrls1.rdQLenPdf::12                  3642                       # What read queue length does an incoming req see
system.mem_ctrls1.rdQLenPdf::13                  3308                       # What read queue length does an incoming req see
system.mem_ctrls1.rdQLenPdf::14                  2948                       # What read queue length does an incoming req see
system.mem_ctrls1.rdQLenPdf::15                  2666                       # What read queue length does an incoming req see
system.mem_ctrls1.rdQLenPdf::16                  2365                       # What read queue length does an incoming req see
system.mem_ctrls1.rdQLenPdf::17                  2170                       # What read queue length does an incoming req see
system.mem_ctrls1.rdQLenPdf::18                  1916                       # What read queue length does an incoming req see
system.mem_ctrls1.rdQLenPdf::19                  1746                       # What read queue length does an incoming req see
system.mem_ctrls1.rdQLenPdf::20                  1639                       # What read queue length does an incoming req see
system.mem_ctrls1.rdQLenPdf::21                  1485                       # What read queue length does an incoming req see
system.mem_ctrls1.rdQLenPdf::22                  1359                       # What read queue length does an incoming req see
system.mem_ctrls1.rdQLenPdf::23                  1231                       # What read queue length does an incoming req see
system.mem_ctrls1.rdQLenPdf::24                  1181                       # What read queue length does an incoming req see
system.mem_ctrls1.rdQLenPdf::25                  1148                       # What read queue length does an incoming req see
system.mem_ctrls1.rdQLenPdf::26                  1048                       # What read queue length does an incoming req see
system.mem_ctrls1.rdQLenPdf::27                   968                       # What read queue length does an incoming req see
system.mem_ctrls1.rdQLenPdf::28                   959                       # What read queue length does an incoming req see
system.mem_ctrls1.rdQLenPdf::29                   955                       # What read queue length does an incoming req see
system.mem_ctrls1.rdQLenPdf::30                  1002                       # What read queue length does an incoming req see
system.mem_ctrls1.rdQLenPdf::31                 16557                       # What read queue length does an incoming req see
system.mem_ctrls1.wrQLenPdf::0                  17576                       # What write queue length does an incoming req see
system.mem_ctrls1.wrQLenPdf::1                  19787                       # What write queue length does an incoming req see
system.mem_ctrls1.wrQLenPdf::2                  20524                       # What write queue length does an incoming req see
system.mem_ctrls1.wrQLenPdf::3                  20762                       # What write queue length does an incoming req see
system.mem_ctrls1.wrQLenPdf::4                  20934                       # What write queue length does an incoming req see
system.mem_ctrls1.wrQLenPdf::5                   6208                       # What write queue length does an incoming req see
system.mem_ctrls1.wrQLenPdf::6                   6404                       # What write queue length does an incoming req see
system.mem_ctrls1.wrQLenPdf::7                  10281                       # What write queue length does an incoming req see
system.mem_ctrls1.bytesPerActivate::samples        76217                       # Bytes accessed per row activation
system.mem_ctrls1.bytesPerActivate::mean   265.597859                       # Bytes accessed per row activation
system.mem_ctrls1.bytesPerActivate::gmean   191.542989                       # Bytes accessed per row activation
system.mem_ctrls1.bytesPerActivate::stdev   228.821111                       # Bytes accessed per row activation
system.mem_ctrls1.bytesPerActivate::0-127        19499     25.58%     25.58% # Bytes accessed per row activation
system.mem_ctrls1.bytesPerActivate::128-255        20590     27.01%     52.60% # Bytes accessed per row activation
system.mem_ctrls1.bytesPerActivate::256-383        21483     28.19%     80.79% # Bytes accessed per row activation
system.mem_ctrls1.bytesPerActivate::384-511         4549      5.97%     86.75% # Bytes accessed per row activation
system.mem_ctrls1.bytesPerActivate::512-639         3742      4.91%     91.66% # Bytes accessed per row activation
system.mem_ctrls1.bytesPerActivate::640-767         1609      2.11%     93.77% # Bytes accessed per row activation
system.mem_ctrls1.bytesPerActivate::768-895         1222      1.60%     95.38% # Bytes accessed per row activation
system.mem_ctrls1.bytesPerActivate::896-1023          808      1.06%     96.44% # Bytes accessed per row activation
system.mem_ctrls1.bytesPerActivate::1024-1151         2715      3.56%    100.00% # Bytes accessed per row activation
system.mem_ctrls1.bytesPerActivate::total        76217                       # Bytes accessed per row activation
system.mem_ctrls1.rdPerTurnAround::samples        18325                       # Reads before turning the bus around for writes
system.mem_ctrls1.rdPerTurnAround::mean     10.576535                       # Reads before turning the bus around for writes
system.mem_ctrls1.rdPerTurnAround::stdev    25.392821                       # Reads before turning the bus around for writes
system.mem_ctrls1.rdPerTurnAround::0-127        18318     99.96%     99.96% # Reads before turning the bus around for writes
system.mem_ctrls1.rdPerTurnAround::128-255            5      0.03%     99.99% # Reads before turning the bus around for writes
system.mem_ctrls1.rdPerTurnAround::1152-1279            1      0.01%     99.99% # Reads before turning the bus around for writes
system.mem_ctrls1.rdPerTurnAround::2816-2943            1      0.01%    100.00% # Reads before turning the bus around for writes
system.mem_ctrls1.rdPerTurnAround::total        18325                       # Reads before turning the bus around for writes
system.mem_ctrls1.wrPerTurnAround::samples        18325                       # Writes before turning the bus around for reads
system.mem_ctrls1.wrPerTurnAround::mean      6.683438                       # Writes before turning the bus around for reads
system.mem_ctrls1.wrPerTurnAround::gmean     6.160423                       # Writes before turning the bus around for reads
system.mem_ctrls1.wrPerTurnAround::stdev     3.226181                       # Writes before turning the bus around for reads
system.mem_ctrls1.wrPerTurnAround::4-7          14237     77.69%     77.69% # Writes before turning the bus around for reads
system.mem_ctrls1.wrPerTurnAround::8-11          2007     10.95%     88.64% # Writes before turning the bus around for reads
system.mem_ctrls1.wrPerTurnAround::12-15         1053      5.75%     94.39% # Writes before turning the bus around for reads
system.mem_ctrls1.wrPerTurnAround::16-19         1028      5.61%    100.00% # Writes before turning the bus around for reads
system.mem_ctrls1.wrPerTurnAround::total        18325                       # Writes before turning the bus around for reads
system.mem_ctrls1.totQLat                 18091927249                       # Total ticks spent queuing
system.mem_ctrls1.totMemAccLat            21726145999                       # Total ticks spent from burst creation until serviced by the DRAM
system.mem_ctrls1.totBusLat                 969125000                       # Total ticks spent in databus transfers
system.mem_ctrls1.avgQLat                    93341.56                       # Average queueing delay per DRAM burst
system.mem_ctrls1.avgBusLat                   5000.00                       # Average bus latency per DRAM burst
system.mem_ctrls1.avgMemAccLat              112091.56                       # Average memory access latency per DRAM burst
system.mem_ctrls1.avgRdBW                      217.02                       # Average DRAM read bandwidth in MiByte/s
system.mem_ctrls1.avgWrBW                      137.13                       # Average achieved write bandwidth in MiByte/s
system.mem_ctrls1.avgRdBWSys                   217.05                       # Average system read bandwidth in MiByte/s
system.mem_ctrls1.avgWrBWSys                   137.13                       # Average system write bandwidth in MiByte/s
system.mem_ctrls1.peakBW                     12800.00                       # Theoretical peak bandwidth in MiByte/s
system.mem_ctrls1.busUtil                        2.77                       # Data bus utilization in percentage
system.mem_ctrls1.busUtilRead                    1.70                       # Data bus utilization in percentage for reads
system.mem_ctrls1.busUtilWrite                   1.07                       # Data bus utilization in percentage for writes
system.mem_ctrls1.avgRdQLen                      1.36                       # Average read queue length when enqueuing
system.mem_ctrls1.avgWrQLen                      2.96                       # Average write queue length when enqueuing
system.mem_ctrls1.readRowHits                  153061                       # Number of row buffer hits during reads
system.mem_ctrls1.writeRowHits                  87020                       # Number of row buffer hits during writes
system.mem_ctrls1.readRowHitRate                78.97                       # Row buffer hit rate for reads
system.mem_ctrls1.writeRowHitRate               71.05                       # Row buffer hit rate for writes
system.mem_ctrls1.avgGap                    180691.92                       # Average gap between requests
system.mem_ctrls1.pageHitRate                   75.90                       # Row buffer hit rate, read and write combined
system.mem_ctrls1.memoryStateTime::IDLE   11893708500                       # Time in different power states
system.mem_ctrls1.memoryStateTime::REF     1908660000                       # Time in different power states
system.mem_ctrls1.memoryStateTime::PRE_PDN            0                       # Time in different power states
system.mem_ctrls1.memoryStateTime::ACT    43356766500                       # Time in different power states
system.mem_ctrls1.memoryStateTime::ACT_PDN            0                       # Time in different power states
system.mem_ctrls1.actEnergy::0              290523240                       # Energy for activate commands per rank (pJ)
system.mem_ctrls1.actEnergy::1              285677280                       # Energy for activate commands per rank (pJ)
system.mem_ctrls1.preEnergy::0              158519625                       # Energy for precharge commands per rank (pJ)
system.mem_ctrls1.preEnergy::1              155875500                       # Energy for precharge commands per rank (pJ)
system.mem_ctrls1.readEnergy::0             754782600                       # Energy for read commands per rank (pJ)
system.mem_ctrls1.readEnergy::1             757044600                       # Energy for read commands per rank (pJ)
system.mem_ctrls1.writeEnergy::0            397411920                       # Energy for write commands per rank (pJ)
system.mem_ctrls1.writeEnergy::1            396219600                       # Energy for write commands per rank (pJ)
system.mem_ctrls1.refreshEnergy::0         3733338960                       # Energy for refresh commands per rank (pJ)
system.mem_ctrls1.refreshEnergy::1         3733338960                       # Energy for refresh commands per rank (pJ)
system.mem_ctrls1.actBackEnergy::0        22376937735                       # Energy for active background per rank (pJ)
system.mem_ctrls1.actBackEnergy::1        21819901815                       # Energy for active background per rank (pJ)
system.mem_ctrls1.preBackEnergy::0        14666580000                       # Energy for precharge background per rank (pJ)
system.mem_ctrls1.preBackEnergy::1        15155208000                       # Energy for precharge background per rank (pJ)
system.mem_ctrls1.totalEnergy::0          42378094080                       # Total energy per rank (pJ)
system.mem_ctrls1.totalEnergy::1          42303265755                       # Total energy per rank (pJ)
system.mem_ctrls1.averagePower::0          741.405626                       # Core power per rank (mW)
system.mem_ctrls1.averagePower::1          740.096503                       # Core power per rank (mW)
system.mem_ctrls2.bytes_read::ruby.dir_cntrl2     12406656                       # Number of bytes read from this memory
system.mem_ctrls2.bytes_read::total          12406656                       # Number of bytes read from this memory
system.mem_ctrls2.bytes_written::ruby.dir_cntrl2      7838912                       # Number of bytes written to this memory
system.mem_ctrls2.bytes_written::total        7838912                       # Number of bytes written to this memory
system.mem_ctrls2.num_reads::ruby.dir_cntrl2       193854                       # Number of read requests responded to by this memory
system.mem_ctrls2.num_reads::total             193854                       # Number of read requests responded to by this memory
system.mem_ctrls2.num_writes::ruby.dir_cntrl2       122483                       # Number of write requests responded to by this memory
system.mem_ctrls2.num_writes::total            122483                       # Number of write requests responded to by this memory
system.mem_ctrls2.bw_read::ruby.dir_cntrl2    217054095                       # Total read bandwidth from this memory (bytes/s)
system.mem_ctrls2.bw_read::total            217054095                       # Total read bandwidth from this memory (bytes/s)
system.mem_ctrls2.bw_write::ruby.dir_cntrl2    137141543                       # Write bandwidth from this memory (bytes/s)
system.mem_ctrls2.bw_write::total           137141543                       # Write bandwidth from this memory (bytes/s)
system.mem_ctrls2.bw_total::ruby.dir_cntrl2    354195638                       # Total bandwidth to/from this memory (bytes/s)
system.mem_ctrls2.bw_total::total           354195638                       # Total bandwidth to/from this memory (bytes/s)
system.mem_ctrls2.readReqs                     193854                       # Number of read requests accepted
system.mem_ctrls2.writeReqs                    122483                       # Number of write requests accepted
system.mem_ctrls2.readBursts                   193854                       # Number of DRAM read bursts, including those serviced by the write queue
system.mem_ctrls2.writeBursts                  122483                       # Number of DRAM write bursts, including those merged in the write queue
system.mem_ctrls2.bytesReadDRAM              12404992                       # Total number of bytes read from DRAM
system.mem_ctrls2.bytesReadWrQ                   1664                       # Total number of bytes read from write queue
system.mem_ctrls2.bytesWritten                7838784                       # Total number of bytes written to DRAM
system.mem_ctrls2.bytesReadSys               12406656                       # Total read bytes from the system interface side
system.mem_ctrls2.bytesWrittenSys             7838912                       # Total written bytes from the system interface side
system.mem_ctrls2.servicedByWrQ                    26                       # Number of DRAM read bursts serviced by the write queue
system.mem_ctrls2.mergedWrBursts                    0                       # Number of DRAM write bursts merged with an existing one
system.mem_ctrls2.neitherReadNorWriteReqs            0                       # Number of requests that are neither read nor write
system.mem_ctrls2.perBankRdBursts::0            11879                       # Per bank write bursts
system.mem_ctrls2.perBankRdBursts::1            11984                       # Per bank write bursts
system.mem_ctrls2.perBankRdBursts::2            11871                       # Per bank write bursts
system.mem_ctrls2.perBankRdBursts::3            12234                       # Per bank write bursts
system.mem_ctrls2.perBankRdBursts::4            12008                       # Per bank write bursts
system.mem_ctrls2.perBankRdBursts::5            12078                       # Per bank write bursts
system.mem_ctrls2.perBankRdBursts::6            12302                       # Per bank write bursts
system.mem_ctrls2.perBankRdBursts::7            12447                       # Per bank write bursts
system.mem_ctrls2.perBankRdBursts::8            12193                       # Per bank write bursts
system.mem_ctrls2.perBankRdBursts::9            12547                       # Per bank write bursts
system.mem_ctrls2.perBankRdBursts::10           12194                       # Per bank write bursts
system.mem_ctrls2.perBankRdBursts::11           12596                       # Per bank write bursts
system.mem_ctrls2.perBankRdBursts::12           12032                       # Per bank write bursts
system.mem_ctrls2.perBankRdBursts::13           11773                       # Per bank write bursts
system.mem_ctrls2.perBankRdBursts::14           11980                       # Per bank write bursts
system.mem_ctrls2.perBankRdBursts::15           11710                       # Per bank write bursts
system.mem_ctrls2.perBankWrBursts::0             7592                       # Per bank write bursts
system.mem_ctrls2.perBankWrBursts::1             7487                       # Per bank write bursts
system.mem_ctrls2.perBankWrBursts::2             7637                       # Per bank write bursts
system.mem_ctrls2.perBankWrBursts::3             7685                       # Per bank write bursts
system.mem_ctrls2.perBankWrBursts::4             7608                       # Per bank write bursts
system.mem_ctrls2.perBankWrBursts::5             7702                       # Per bank write bursts
system.mem_ctrls2.perBankWrBursts::6             7773                       # Per bank write bursts
system.mem_ctrls2.perBankWrBursts::7             7834                       # Per bank write bursts
system.mem_ctrls2.perBankWrBursts::8             7727                       # Per bank write bursts
system.mem_ctrls2.perBankWrBursts::9             7860                       # Per bank write bursts
system.mem_ctrls2.perBankWrBursts::10            7674                       # Per bank write bursts
system.mem_ctrls2.perBankWrBursts::11            7693                       # Per bank write bursts
system.mem_ctrls2.perBankWrBursts::12            7559                       # Per bank write bursts
system.mem_ctrls2.perBankWrBursts::13            7593                       # Per bank write bursts
system.mem_ctrls2.perBankWrBursts::14            7624                       # Per bank write bursts
system.mem_ctrls2.perBankWrBursts::15            7433                       # Per bank write bursts
system.mem_ctrls2.numRdRetry                    13552                       # Number of times read queue was full causing retry
system.mem_ctrls2.numWrRetry                     5310                       # Number of times write queue was full causing retry
system.mem_ctrls2.totGap                  57158902500                       # Total gap between requests
system.mem_ctrls2.readPktSize::0                    0                       # Read request sizes (log2)
system.mem_ctrls2.readPktSize::1                    0                       # Read request sizes (log2)
system.mem_ctrls2.readPktSize::2                    0                       # Read request sizes (log2)
system.mem_ctrls2.readPktSize::3                    0                       # Read request sizes (log2)
system.mem_ctrls2.readPktSize::4                    0                       # Read request sizes (log2)
system.mem_ctrls2.readPktSize::5                    0                       # Read request sizes (log2)
system.mem_ctrls2.readPktSize::6               193854                       # Read request sizes (log2)
system.mem_ctrls2.writePktSize::0                   0                       # Write request sizes (log2)
system.mem_ctrls2.writePktSize::1                   0                       # Write request sizes (log2)
system.mem_ctrls2.writePktSize::2                   0                       # Write request sizes (log2)
system.mem_ctrls2.writePktSize::3                   0                       # Write request sizes (log2)
system.mem_ctrls2.writePktSize::4                   0                       # Write request sizes (log2)
system.mem_ctrls2.writePktSize::5                   0                       # Write request sizes (log2)
system.mem_ctrls2.writePktSize::6              122483                       # Write request sizes (log2)
system.mem_ctrls2.rdQLenPdf::0                  73252                       # What read queue length does an incoming req see
system.mem_ctrls2.rdQLenPdf::1                   8316                       # What read queue length does an incoming req see
system.mem_ctrls2.rdQLenPdf::2                   7980                       # What read queue length does an incoming req see
system.mem_ctrls2.rdQLenPdf::3                   7683                       # What read queue length does an incoming req see
system.mem_ctrls2.rdQLenPdf::4                   7457                       # What read queue length does an incoming req see
system.mem_ctrls2.rdQLenPdf::5                   7159                       # What read queue length does an incoming req see
system.mem_ctrls2.rdQLenPdf::6                   6763                       # What read queue length does an incoming req see
system.mem_ctrls2.rdQLenPdf::7                   6184                       # What read queue length does an incoming req see
system.mem_ctrls2.rdQLenPdf::8                   5601                       # What read queue length does an incoming req see
system.mem_ctrls2.rdQLenPdf::9                   5076                       # What read queue length does an incoming req see
system.mem_ctrls2.rdQLenPdf::10                  4413                       # What read queue length does an incoming req see
system.mem_ctrls2.rdQLenPdf::11                  3916                       # What read queue length does an incoming req see
system.mem_ctrls2.rdQLenPdf::12                  3610                       # What read queue length does an incoming req see
system.mem_ctrls2.rdQLenPdf::13                  3297                       # What read queue length does an incoming req see
system.mem_ctrls2.rdQLenPdf::14                  2920                       # What read queue length does an incoming req see
system.mem_ctrls2.rdQLenPdf::15                  2557                       # What read queue length does an incoming req see
system.mem_ctrls2.rdQLenPdf::16                  2382                       # What read queue length does an incoming req see
system.mem_ctrls2.rdQLenPdf::17                  2240                       # What read queue length does an incoming req see
system.mem_ctrls2.rdQLenPdf::18                  2044                       # What read queue length does an incoming req see
system.mem_ctrls2.rdQLenPdf::19                  1882                       # What read queue length does an incoming req see
system.mem_ctrls2.rdQLenPdf::20                  1717                       # What read queue length does an incoming req see
system.mem_ctrls2.rdQLenPdf::21                  1569                       # What read queue length does an incoming req see
system.mem_ctrls2.rdQLenPdf::22                  1467                       # What read queue length does an incoming req see
system.mem_ctrls2.rdQLenPdf::23                  1336                       # What read queue length does an incoming req see
system.mem_ctrls2.rdQLenPdf::24                  1225                       # What read queue length does an incoming req see
system.mem_ctrls2.rdQLenPdf::25                  1192                       # What read queue length does an incoming req see
system.mem_ctrls2.rdQLenPdf::26                  1149                       # What read queue length does an incoming req see
system.mem_ctrls2.rdQLenPdf::27                  1122                       # What read queue length does an incoming req see
system.mem_ctrls2.rdQLenPdf::28                  1095                       # What read queue length does an incoming req see
system.mem_ctrls2.rdQLenPdf::29                  1032                       # What read queue length does an incoming req see
system.mem_ctrls2.rdQLenPdf::30                  1138                       # What read queue length does an incoming req see
system.mem_ctrls2.rdQLenPdf::31                 15054                       # What read queue length does an incoming req see
system.mem_ctrls2.wrQLenPdf::0                  17548                       # What write queue length does an incoming req see
system.mem_ctrls2.wrQLenPdf::1                  19784                       # What write queue length does an incoming req see
system.mem_ctrls2.wrQLenPdf::2                  20627                       # What write queue length does an incoming req see
system.mem_ctrls2.wrQLenPdf::3                  20873                       # What write queue length does an incoming req see
system.mem_ctrls2.wrQLenPdf::4                  20884                       # What write queue length does an incoming req see
system.mem_ctrls2.wrQLenPdf::5                   6402                       # What write queue length does an incoming req see
system.mem_ctrls2.wrQLenPdf::6                   6383                       # What write queue length does an incoming req see
system.mem_ctrls2.wrQLenPdf::7                   9982                       # What write queue length does an incoming req see
system.mem_ctrls2.bytesPerActivate::samples        76074                       # Bytes accessed per row activation
system.mem_ctrls2.bytesPerActivate::mean   266.105529                       # Bytes accessed per row activation
system.mem_ctrls2.bytesPerActivate::gmean   192.538154                       # Bytes accessed per row activation
system.mem_ctrls2.bytesPerActivate::stdev   227.842900                       # Bytes accessed per row activation
system.mem_ctrls2.bytesPerActivate::0-127        19172     25.20%     25.20% # Bytes accessed per row activation
system.mem_ctrls2.bytesPerActivate::128-255        20499     26.95%     52.15% # Bytes accessed per row activation
system.mem_ctrls2.bytesPerActivate::256-383        21796     28.65%     80.80% # Bytes accessed per row activation
system.mem_ctrls2.bytesPerActivate::384-511         4596      6.04%     86.84% # Bytes accessed per row activation
system.mem_ctrls2.bytesPerActivate::512-639         3745      4.92%     91.76% # Bytes accessed per row activation
system.mem_ctrls2.bytesPerActivate::640-767         1567      2.06%     93.82% # Bytes accessed per row activation
system.mem_ctrls2.bytesPerActivate::768-895         1218      1.60%     95.42% # Bytes accessed per row activation
system.mem_ctrls2.bytesPerActivate::896-1023          788      1.04%     96.46% # Bytes accessed per row activation
system.mem_ctrls2.bytesPerActivate::1024-1151         2693      3.54%    100.00% # Bytes accessed per row activation
system.mem_ctrls2.bytesPerActivate::total        76074                       # Bytes accessed per row activation
system.mem_ctrls2.rdPerTurnAround::samples        18297                       # Reads before turning the bus around for writes
system.mem_ctrls2.rdPerTurnAround::mean     10.592939                       # Reads before turning the bus around for writes
system.mem_ctrls2.rdPerTurnAround::stdev    25.476856                       # Reads before turning the bus around for writes
system.mem_ctrls2.rdPerTurnAround::0-127        18292     99.97%     99.97% # Reads before turning the bus around for writes
system.mem_ctrls2.rdPerTurnAround::128-255            3      0.02%     99.99% # Reads before turning the bus around for writes
system.mem_ctrls2.rdPerTurnAround::1152-1279            1      0.01%     99.99% # Reads before turning the bus around for writes
system.mem_ctrls2.rdPerTurnAround::2816-2943            1      0.01%    100.00% # Reads before turning the bus around for writes
system.mem_ctrls2.rdPerTurnAround::total        18297                       # Reads before turning the bus around for writes
system.mem_ctrls2.wrPerTurnAround::samples        18297                       # Writes before turning the bus around for reads
system.mem_ctrls2.wrPerTurnAround::mean      6.694048                       # Writes before turning the bus around for reads
system.mem_ctrls2.wrPerTurnAround::gmean     6.169821                       # Writes before turning the bus around for reads
system.mem_ctrls2.wrPerTurnAround::stdev     3.223283                       # Writes before turning the bus around for reads
system.mem_ctrls2.wrPerTurnAround::4-7          14136     77.26%     77.26% # Writes before turning the bus around for reads
system.mem_ctrls2.wrPerTurnAround::8-11          2080     11.37%     88.63% # Writes before turning the bus around for reads
system.mem_ctrls2.wrPerTurnAround::12-15         1090      5.96%     94.58% # Writes before turning the bus around for reads
system.mem_ctrls2.wrPerTurnAround::16-19          991      5.42%    100.00% # Writes before turning the bus around for reads
system.mem_ctrls2.wrPerTurnAround::total        18297                       # Writes before turning the bus around for reads
system.mem_ctrls2.totQLat                 17868844791                       # Total ticks spent queuing
system.mem_ctrls2.totMemAccLat            21503119791                       # Total ticks spent from burst creation until serviced by the DRAM
system.mem_ctrls2.totBusLat                 969140000                       # Total ticks spent in databus transfers
system.mem_ctrls2.avgQLat                    92189.18                       # Average queueing delay per DRAM burst
system.mem_ctrls2.avgBusLat                   5000.00                       # Average bus latency per DRAM burst
system.mem_ctrls2.avgMemAccLat              110939.18                       # Average memory access latency per DRAM burst
system.mem_ctrls2.avgRdBW                      217.02                       # Average DRAM read bandwidth in MiByte/s
system.mem_ctrls2.avgWrBW                      137.14                       # Average achieved write bandwidth in MiByte/s
system.mem_ctrls2.avgRdBWSys                   217.05                       # Average system read bandwidth in MiByte/s
system.mem_ctrls2.avgWrBWSys                   137.14                       # Average system write bandwidth in MiByte/s
system.mem_ctrls2.peakBW                     12800.00                       # Theoretical peak bandwidth in MiByte/s
system.mem_ctrls2.busUtil                        2.77                       # Data bus utilization in percentage
system.mem_ctrls2.busUtilRead                    1.70                       # Data bus utilization in percentage for reads
system.mem_ctrls2.busUtilWrite                   1.07                       # Data bus utilization in percentage for writes
system.mem_ctrls2.avgRdQLen                      1.35                       # Average read queue length when enqueuing
system.mem_ctrls2.avgWrQLen                      2.92                       # Average write queue length when enqueuing
system.mem_ctrls2.readRowHits                  152997                       # Number of row buffer hits during reads
system.mem_ctrls2.writeRowHits                  87237                       # Number of row buffer hits during writes
system.mem_ctrls2.readRowHitRate                78.93                       # Row buffer hit rate for reads
system.mem_ctrls2.writeRowHitRate               71.22                       # Row buffer hit rate for writes
system.mem_ctrls2.avgGap                    180689.91                       # Average gap between requests
system.mem_ctrls2.pageHitRate                   75.95                       # Row buffer hit rate, read and write combined
system.mem_ctrls2.memoryStateTime::IDLE   11876500500                       # Time in different power states
system.mem_ctrls2.memoryStateTime::REF     1908660000                       # Time in different power states
system.mem_ctrls2.memoryStateTime::PRE_PDN            0                       # Time in different power states
system.mem_ctrls2.memoryStateTime::ACT    43373974500                       # Time in different power states
system.mem_ctrls2.memoryStateTime::ACT_PDN            0                       # Time in different power states
system.mem_ctrls2.actEnergy::0              289049040                       # Energy for activate commands per rank (pJ)
system.mem_ctrls2.actEnergy::1              286070400                       # Energy for activate commands per rank (pJ)
system.mem_ctrls2.preEnergy::0              157715250                       # Energy for precharge commands per rank (pJ)
system.mem_ctrls2.preEnergy::1              156090000                       # Energy for precharge commands per rank (pJ)
system.mem_ctrls2.readEnergy::0             755055600                       # Energy for read commands per rank (pJ)
system.mem_ctrls2.readEnergy::1             756795000                       # Energy for read commands per rank (pJ)
system.mem_ctrls2.writeEnergy::0            397340640                       # Energy for write commands per rank (pJ)
system.mem_ctrls2.writeEnergy::1            396336240                       # Energy for write commands per rank (pJ)
system.mem_ctrls2.refreshEnergy::0         3733338960                       # Energy for refresh commands per rank (pJ)
system.mem_ctrls2.refreshEnergy::1         3733338960                       # Energy for refresh commands per rank (pJ)
system.mem_ctrls2.actBackEnergy::0        22129116840                       # Energy for active background per rank (pJ)
system.mem_ctrls2.actBackEnergy::1        21627755100                       # Energy for active background per rank (pJ)
system.mem_ctrls2.preBackEnergy::0        14883966750                       # Energy for precharge background per rank (pJ)
system.mem_ctrls2.preBackEnergy::1        15323757750                       # Energy for precharge background per rank (pJ)
system.mem_ctrls2.totalEnergy::0          42345583080                       # Total energy per rank (pJ)
system.mem_ctrls2.totalEnergy::1          42280143450                       # Total energy per rank (pJ)
system.mem_ctrls2.averagePower::0          740.836846                       # Core power per rank (mW)
system.mem_ctrls2.averagePower::1          739.691978                       # Core power per rank (mW)
system.mem_ctrls3.bytes_read::ruby.dir_cntrl3     12386688                       # Number of bytes read from this memory
system.mem_ctrls3.bytes_read::total          12386688                       # Number of bytes read from this memory
system.mem_ctrls3.bytes_written::ruby.dir_cntrl3      7837120                       # Number of bytes written to this memory
system.mem_ctrls3.bytes_written::total        7837120                       # Number of bytes written to this memory
system.mem_ctrls3.num_reads::ruby.dir_cntrl3       193542                       # Number of read requests responded to by this memory
system.mem_ctrls3.num_reads::total             193542                       # Number of read requests responded to by this memory
system.mem_ctrls3.num_writes::ruby.dir_cntrl3       122455                       # Number of write requests responded to by this memory
system.mem_ctrls3.num_writes::total            122455                       # Number of write requests responded to by this memory
system.mem_ctrls3.bw_read::ruby.dir_cntrl3    216704755                       # Total read bandwidth from this memory (bytes/s)
system.mem_ctrls3.bw_read::total            216704755                       # Total read bandwidth from this memory (bytes/s)
system.mem_ctrls3.bw_write::ruby.dir_cntrl3    137110192                       # Write bandwidth from this memory (bytes/s)
system.mem_ctrls3.bw_write::total           137110192                       # Write bandwidth from this memory (bytes/s)
system.mem_ctrls3.bw_total::ruby.dir_cntrl3    353814947                       # Total bandwidth to/from this memory (bytes/s)
system.mem_ctrls3.bw_total::total           353814947                       # Total bandwidth to/from this memory (bytes/s)
system.mem_ctrls3.readReqs                     193542                       # Number of read requests accepted
system.mem_ctrls3.writeReqs                    122455                       # Number of write requests accepted
system.mem_ctrls3.readBursts                   193542                       # Number of DRAM read bursts, including those serviced by the write queue
system.mem_ctrls3.writeBursts                  122455                       # Number of DRAM write bursts, including those merged in the write queue
system.mem_ctrls3.bytesReadDRAM              12385664                       # Total number of bytes read from DRAM
system.mem_ctrls3.bytesReadWrQ                   1024                       # Total number of bytes read from write queue
system.mem_ctrls3.bytesWritten                7836928                       # Total number of bytes written to DRAM
system.mem_ctrls3.bytesReadSys               12386688                       # Total read bytes from the system interface side
system.mem_ctrls3.bytesWrittenSys             7837120                       # Total written bytes from the system interface side
system.mem_ctrls3.servicedByWrQ                    16                       # Number of DRAM read bursts serviced by the write queue
system.mem_ctrls3.mergedWrBursts                    0                       # Number of DRAM write bursts merged with an existing one
system.mem_ctrls3.neitherReadNorWriteReqs            0                       # Number of requests that are neither read nor write
system.mem_ctrls3.perBankRdBursts::0            11868                       # Per bank write bursts
system.mem_ctrls3.perBankRdBursts::1            11941                       # Per bank write bursts
system.mem_ctrls3.perBankRdBursts::2            11813                       # Per bank write bursts
system.mem_ctrls3.perBankRdBursts::3            12191                       # Per bank write bursts
system.mem_ctrls3.perBankRdBursts::4            11957                       # Per bank write bursts
system.mem_ctrls3.perBankRdBursts::5            12058                       # Per bank write bursts
system.mem_ctrls3.perBankRdBursts::6            12283                       # Per bank write bursts
system.mem_ctrls3.perBankRdBursts::7            12441                       # Per bank write bursts
system.mem_ctrls3.perBankRdBursts::8            12194                       # Per bank write bursts
system.mem_ctrls3.perBankRdBursts::9            12542                       # Per bank write bursts
system.mem_ctrls3.perBankRdBursts::10           12222                       # Per bank write bursts
system.mem_ctrls3.perBankRdBursts::11           12524                       # Per bank write bursts
system.mem_ctrls3.perBankRdBursts::12           12020                       # Per bank write bursts
system.mem_ctrls3.perBankRdBursts::13           11769                       # Per bank write bursts
system.mem_ctrls3.perBankRdBursts::14           11998                       # Per bank write bursts
system.mem_ctrls3.perBankRdBursts::15           11705                       # Per bank write bursts
system.mem_ctrls3.perBankWrBursts::0             7598                       # Per bank write bursts
system.mem_ctrls3.perBankWrBursts::1             7474                       # Per bank write bursts
system.mem_ctrls3.perBankWrBursts::2             7633                       # Per bank write bursts
system.mem_ctrls3.perBankWrBursts::3             7674                       # Per bank write bursts
system.mem_ctrls3.perBankWrBursts::4             7604                       # Per bank write bursts
system.mem_ctrls3.perBankWrBursts::5             7704                       # Per bank write bursts
system.mem_ctrls3.perBankWrBursts::6             7774                       # Per bank write bursts
system.mem_ctrls3.perBankWrBursts::7             7825                       # Per bank write bursts
system.mem_ctrls3.perBankWrBursts::8             7727                       # Per bank write bursts
system.mem_ctrls3.perBankWrBursts::9             7862                       # Per bank write bursts
system.mem_ctrls3.perBankWrBursts::10            7677                       # Per bank write bursts
system.mem_ctrls3.perBankWrBursts::11            7701                       # Per bank write bursts
system.mem_ctrls3.perBankWrBursts::12            7556                       # Per bank write bursts
system.mem_ctrls3.perBankWrBursts::13            7600                       # Per bank write bursts
system.mem_ctrls3.perBankWrBursts::14            7619                       # Per bank write bursts
system.mem_ctrls3.perBankWrBursts::15            7424                       # Per bank write bursts
system.mem_ctrls3.numRdRetry                    13288                       # Number of times read queue was full causing retry
system.mem_ctrls3.numWrRetry                     5228                       # Number of times write queue was full causing retry
system.mem_ctrls3.totGap                  57158004500                       # Total gap between requests
system.mem_ctrls3.readPktSize::0                    0                       # Read request sizes (log2)
system.mem_ctrls3.readPktSize::1                    0                       # Read request sizes (log2)
system.mem_ctrls3.readPktSize::2                    0                       # Read request sizes (log2)
system.mem_ctrls3.readPktSize::3                    0                       # Read request sizes (log2)
system.mem_ctrls3.readPktSize::4                    0                       # Read request sizes (log2)
system.mem_ctrls3.readPktSize::5                    0                       # Read request sizes (log2)
system.mem_ctrls3.readPktSize::6               193542                       # Read request sizes (log2)
system.mem_ctrls3.writePktSize::0                   0                       # Write request sizes (log2)
system.mem_ctrls3.writePktSize::1                   0                       # Write request sizes (log2)
system.mem_ctrls3.writePktSize::2                   0                       # Write request sizes (log2)
system.mem_ctrls3.writePktSize::3                   0                       # Write request sizes (log2)
system.mem_ctrls3.writePktSize::4                   0                       # Write request sizes (log2)
system.mem_ctrls3.writePktSize::5                   0                       # Write request sizes (log2)
system.mem_ctrls3.writePktSize::6              122455                       # Write request sizes (log2)
system.mem_ctrls3.rdQLenPdf::0                  72813                       # What read queue length does an incoming req see
system.mem_ctrls3.rdQLenPdf::1                   8444                       # What read queue length does an incoming req see
system.mem_ctrls3.rdQLenPdf::2                   8112                       # What read queue length does an incoming req see
system.mem_ctrls3.rdQLenPdf::3                   7732                       # What read queue length does an incoming req see
system.mem_ctrls3.rdQLenPdf::4                   7561                       # What read queue length does an incoming req see
system.mem_ctrls3.rdQLenPdf::5                   7071                       # What read queue length does an incoming req see
system.mem_ctrls3.rdQLenPdf::6                   6663                       # What read queue length does an incoming req see
system.mem_ctrls3.rdQLenPdf::7                   6130                       # What read queue length does an incoming req see
system.mem_ctrls3.rdQLenPdf::8                   5629                       # What read queue length does an incoming req see
system.mem_ctrls3.rdQLenPdf::9                   5073                       # What read queue length does an incoming req see
system.mem_ctrls3.rdQLenPdf::10                  4610                       # What read queue length does an incoming req see
system.mem_ctrls3.rdQLenPdf::11                  4012                       # What read queue length does an incoming req see
system.mem_ctrls3.rdQLenPdf::12                  3588                       # What read queue length does an incoming req see
system.mem_ctrls3.rdQLenPdf::13                  3187                       # What read queue length does an incoming req see
system.mem_ctrls3.rdQLenPdf::14                  2945                       # What read queue length does an incoming req see
system.mem_ctrls3.rdQLenPdf::15                  2796                       # What read queue length does an incoming req see
system.mem_ctrls3.rdQLenPdf::16                  2576                       # What read queue length does an incoming req see
system.mem_ctrls3.rdQLenPdf::17                  2403                       # What read queue length does an incoming req see
system.mem_ctrls3.rdQLenPdf::18                  2099                       # What read queue length does an incoming req see
system.mem_ctrls3.rdQLenPdf::19                  1944                       # What read queue length does an incoming req see
system.mem_ctrls3.rdQLenPdf::20                  1797                       # What read queue length does an incoming req see
system.mem_ctrls3.rdQLenPdf::21                  1599                       # What read queue length does an incoming req see
system.mem_ctrls3.rdQLenPdf::22                  1453                       # What read queue length does an incoming req see
system.mem_ctrls3.rdQLenPdf::23                  1323                       # What read queue length does an incoming req see
system.mem_ctrls3.rdQLenPdf::24                  1205                       # What read queue length does an incoming req see
[...]
system.ruby.L2Cache_Controller.IS.Mem_Data::total        13512                      
system.ruby.L2Cache_Controller.IM.L1_GETX |           7    100.00%    100.00% |           0      0.00%    100.00% |           0      0.00%    100.00% |           0      0.00%    100.00% |           0      0.00%    100.00% |           0      0.00%    100.00% |           0      0.00%    100.00% |           0      0.00%    100.00% |           0      0.00%    100.00% |           0      0.00%    100.00% |           0      0.00%    100.00% |           0      0.00%    100.00% |           0      0.00%    100.00% |           0      0.00%    100.00% |           0      0.00%    100.00% |           0      0.00%    100.00% |           0      0.00%    100.00% |           0      0.00%    100.00% |           0      0.00%    100.00% |           0      0.00%    100.00% |           0      0.00%    100.00% |           0      0.00%    100.00% |           0      0.00%    100.00% |           0      0.00%    100.00% |           0      0.00%    100.00% |           0      0.00%    100.00% |           0      0.00%    100.00% |           0      0.00%    100.00% |           0      0.00%    100.00% |           0      0.00%    100.00% |           0      0.00%    100.00% |           0      0.00%    100.00%
system.ruby.L2Cache_Controller.IM.L1_GETX::total            7                      
system.ruby.L2Cache_Controller.IM.Mem_Data |       14978      3.14%      3.14% |       14885      3.12%      6.26% |       14890      3.12%      9.39% |       14891      3.12%     12.51% |       14883      3.12%     15.63% |       14891      3.12%     18.76% |       14894      3.12%     21.88% |       14887      3.12%     25.00% |       14895      3.12%     28.13% |       14899      3.13%     31.25% |       14880      3.12%     34.38% |       14902      3.13%     37.50% |       14892      3.12%     40.63% |       14893      3.12%     43.75% |       14888      3.12%     46.87% |       14883      3.12%     49.99% |       14923      3.13%     53.12% |       14896      3.12%     56.25% |       14897      3.12%     59.37% |       14901      3.13%     62.50% |       14914      3.13%     65.63% |       14921      3.13%     68.76% |       14886      3.12%     71.88% |       14898      3.13%     75.01% |       14909      3.13%     78.13% |       14899      3.13%     81.26% |       14902      3.13%     84.38% |       14893      3.12%     87.51% |       14887      3.12%     90.63% |       14883      3.12%     93.75% |       14895      3.12%     96.88% |       14882      3.12%    100.00%
system.ruby.L2Cache_Controller.IM.Mem_Data::total       476717                      
system.ruby.L2Cache_Controller.SS_MB.Exclusive_Unblock |           3      6.12%      6.12% |           6     12.24%     18.37% |           2      4.08%     22.45% |           3      6.12%     28.57% |           0      0.00%     28.57% |           0      0.00%     28.57% |           0      0.00%     28.57% |           0      0.00%     28.57% |           1      2.04%     30.61% |           0      0.00%     30.61% |           0      0.00%     30.61% |           1      2.04%     32.65% |           4      8.16%     40.82% |           0      0.00%     40.82% |           2      4.08%     44.90% |           0      0.00%     44.90% |           1      2.04%     46.94% |           2      4.08%     51.02% |          13     26.53%     77.55% |           3      6.12%     83.67% |           0      0.00%     83.67% |           0      0.00%     83.67% |           0      0.00%     83.67% |           0      0.00%     83.67% |           1      2.04%     85.71% |           0      0.00%     85.71% |           3      6.12%     91.84% |           4      8.16%    100.00% |           0      0.00%    100.00% |           0      0.00%    100.00% |           0      0.00%    100.00% |           0      0.00%    100.00%
system.ruby.L2Cache_Controller.SS_MB.Exclusive_Unblock::total           49                      
system.ruby.L2Cache_Controller.MT_MB.L1_PUTX |           0      0.00%      0.00% |           0      0.00%      0.00% |           0      0.00%      0.00% |           0      0.00%      0.00% |           0      0.00%      0.00% |           0      0.00%      0.00% |           0      0.00%      0.00% |           0      0.00%      0.00% |           0      0.00%      0.00% |           0      0.00%      0.00% |           0      0.00%      0.00% |           0      0.00%      0.00% |           0      0.00%      0.00% |           0      0.00%      0.00% |           0      0.00%      0.00% |           0      0.00%      0.00% |           1    100.00%    100.00% |           0      0.00%    100.00% |           0      0.00%    100.00% |           0      0.00%    100.00% |           0      0.00%    100.00% |           0      0.00%    100.00% |           0      0.00%    100.00% |           0      0.00%    100.00% |           0      0.00%    100.00% |           0      0.00%    100.00% |           0      0.00%    100.00% |           0      0.00%    100.00% |           0      0.00%    100.00% |           0      0.00%    100.00% |           0      0.00%    100.00% |           0      0.00%    100.00%
system.ruby.L2Cache_Controller.MT_MB.L1_PUTX::total            1                      
system.ruby.L2Cache_Controller.MT_MB.Exclusive_Unblock |       75915      7.22%      7.22% |       32862      3.13%     10.35% |       29485      2.81%     13.15% |       32395      3.08%     16.24% |       29785      2.83%     19.07% |       29679      2.82%     21.89% |       29091      2.77%     24.66% |       29699      2.83%     27.49% |       30399      2.89%     30.38% |       29991      2.85%     33.23% |       32551      3.10%     36.33% |       30866      2.94%     39.27% |       30522      2.90%     42.17% |       30304      2.88%     45.05% |       29598      2.82%     47.87% |       30195      2.87%     50.74% |       31503      3.00%     53.74% |       30315      2.88%     56.62% |       30939      2.94%     59.57% |       31637      3.01%     62.58% |       32121      3.06%     65.63% |       37029      3.52%     69.16% |       31257      2.97%     72.13% |       31250      2.97%     75.10% |       31257      2.97%     78.08% |       31241      2.97%     81.05% |       31165      2.97%     84.02% |       30877      2.94%     86.95% |       32690      3.11%     90.06% |       32157      3.06%     93.12% |       34147      3.25%     96.37% |       38136      3.63%    100.00%
system.ruby.L2Cache_Controller.MT_MB.Exclusive_Unblock::total      1051058                      
system.ruby.L2Cache_Controller.MT_IIB.WB_Data |           1      1.25%      1.25% |           2      2.50%      3.75% |           1      1.25%      5.00% |           2      2.50%      7.50% |           3      3.75%     11.25% |           3      3.75%     15.00% |           4      5.00%     20.00% |           3      3.75%     23.75% |           5      6.25%     30.00% |           3      3.75%     33.75% |           2      2.50%     36.25% |           2      2.50%     38.75% |           3      3.75%     42.50% |           3      3.75%     46.25% |           4      5.00%     51.25% |           3      3.75%     55.00% |           3      3.75%     58.75% |           1      1.25%     60.00% |           2      2.50%     62.50% |           0      0.00%     62.50% |           1      1.25%     63.75% |           0      0.00%     63.75% |           1      1.25%     65.00% |           2      2.50%     67.50% |           3      3.75%     71.25% |           5      6.25%     77.50% |           4      5.00%     82.50% |           5      6.25%     88.75% |           3      3.75%     92.50% |           2      2.50%     95.00% |           2      2.50%     97.50% |           2      2.50%    100.00%
system.ruby.L2Cache_Controller.MT_IIB.WB_Data::total           80                      
system.ruby.L2Cache_Controller.MT_IIB.WB_Data_clean |          34     45.33%     45.33% |           0      0.00%     45.33% |           0      0.00%     45.33% |          13     17.33%     62.67% |           0      0.00%     62.67% |           0      0.00%     62.67% |           0      0.00%     62.67% |           0      0.00%     62.67% |           0      0.00%     62.67% |           0      0.00%     62.67% |           0      0.00%     62.67% |           0      0.00%     62.67% |           0      0.00%     62.67% |           0      0.00%     62.67% |           0      0.00%     62.67% |           0      0.00%     62.67% |          11     14.67%     77.33% |           0      0.00%     77.33% |           0      0.00%     77.33% |          15     20.00%     97.33% |           0      0.00%     97.33% |           0      0.00%     97.33% |           0      0.00%     97.33% |           0      0.00%     97.33% |           0      0.00%     97.33% |           0      0.00%     97.33% |           0      0.00%     97.33% |           2      2.67%    100.00% |           0      0.00%    100.00% |           0      0.00%    100.00% |           0      0.00%    100.00% |           0      0.00%    100.00%
system.ruby.L2Cache_Controller.MT_IIB.WB_Data_clean::total           75                      
system.ruby.L2Cache_Controller.MT_IIB.Unblock |           0      0.00%      0.00% |           0      0.00%      0.00% |           0      0.00%      0.00% |           3     50.00%     50.00% |           0      0.00%     50.00% |           0      0.00%     50.00% |           0      0.00%     50.00% |           0      0.00%     50.00% |           0      0.00%     50.00% |           0      0.00%     50.00% |           0      0.00%     50.00% |           0      0.00%     50.00% |           0      0.00%     50.00% |           0      0.00%     50.00% |           0      0.00%     50.00% |           0      0.00%     50.00% |           2     33.33%     83.33% |           0      0.00%     83.33% |           0      0.00%     83.33% |           1     16.67%    100.00% |           0      0.00%    100.00% |           0      0.00%    100.00% |           0      0.00%    100.00% |           0      0.00%    100.00% |           0      0.00%    100.00% |           0      0.00%    100.00% |           0      0.00%    100.00% |           0      0.00%    100.00% |           0      0.00%    100.00% |           0      0.00%    100.00% |           0      0.00%    100.00% |           0      0.00%    100.00%
system.ruby.L2Cache_Controller.MT_IIB.Unblock::total            6                      
system.ruby.L2Cache_Controller.MT_IB.WB_Data |           0      0.00%      0.00% |           0      0.00%      0.00% |           0      0.00%      0.00% |           1    100.00%    100.00% |           0      0.00%    100.00% |           0      0.00%    100.00% |           0      0.00%    100.00% |           0      0.00%    100.00% |           0      0.00%    100.00% |           0      0.00%    100.00% |           0      0.00%    100.00% |           0      0.00%    100.00% |           0      0.00%    100.00% |           0      0.00%    100.00% |           0      0.00%    100.00% |           0      0.00%    100.00% |           0      0.00%    100.00% |           0      0.00%    100.00% |           0      0.00%    100.00% |           0      0.00%    100.00% |           0      0.00%    100.00% |           0      0.00%    100.00% |           0      0.00%    100.00% |           0      0.00%    100.00% |           0      0.00%    100.00% |           0      0.00%    100.00% |           0      0.00%    100.00% |           0      0.00%    100.00% |           0      0.00%    100.00% |           0      0.00%    100.00% |           0      0.00%    100.00% |           0      0.00%    100.00%
system.ruby.L2Cache_Controller.MT_IB.WB_Data::total            1                      
system.ruby.L2Cache_Controller.MT_IB.WB_Data_clean |           0      0.00%      0.00% |           0      0.00%      0.00% |           0      0.00%      0.00% |           2     40.00%     40.00% |           0      0.00%     40.00% |           0      0.00%     40.00% |           0      0.00%     40.00% |           0      0.00%     40.00% |           0      0.00%     40.00% |           0      0.00%     40.00% |           0      0.00%     40.00% |           0      0.00%     40.00% |           0      0.00%     40.00% |           0      0.00%     40.00% |           0      0.00%     40.00% |           0      0.00%     40.00% |           2     40.00%     80.00% |           0      0.00%     80.00% |           0      0.00%     80.00% |           1     20.00%    100.00% |           0      0.00%    100.00% |           0      0.00%    100.00% |           0      0.00%    100.00% |           0      0.00%    100.00% |           0      0.00%    100.00% |           0      0.00%    100.00% |           0      0.00%    100.00% |           0      0.00%    100.00% |           0      0.00%    100.00% |           0      0.00%    100.00% |           0      0.00%    100.00% |           0      0.00%    100.00%
system.ruby.L2Cache_Controller.MT_IB.WB_Data_clean::total            5                      
system.ruby.L2Cache_Controller.MT_SB.Unblock |          35     22.58%     22.58% |           2      1.29%     23.87% |           1      0.65%     24.52% |          15      9.68%     34.19% |           3      1.94%     36.13% |           3      1.94%     38.06% |           4      2.58%     40.65% |           3      1.94%     42.58% |           5      3.23%     45.81% |           3      1.94%     47.74% |           2      1.29%     49.03% |           2      1.29%     50.32% |           3      1.94%     52.26% |           3      1.94%     54.19% |           4      2.58%     56.77% |           3      1.94%     58.71% |          14      9.03%     67.74% |           1      0.65%     68.39% |           2      1.29%     69.68% |          15      9.68%     79.35% |           1      0.65%     80.00% |           0      0.00%     80.00% |           1      0.65%     80.65% |           2      1.29%     81.94% |           3      1.94%     83.87% |           5      3.23%     87.10% |           4      2.58%     89.68% |           7      4.52%     94.19% |           3      1.94%     96.13% |           2      1.29%     97.42% |           2      1.29%     98.71% |           2      1.29%    100.00%
system.ruby.L2Cache_Controller.MT_SB.Unblock::total          155                      
system.ruby.SimicsNetworkPortInterface_Controller.MessageSend |      210169     22.93%     22.93% |      458372     50.00%     72.93% |       29891      3.26%     76.19% |       30858      3.37%     79.55% |       31113      3.39%     82.95% |       31818      3.47%     86.42% |       30302      3.31%     89.72% |       31575      3.44%     93.17% |       31270      3.41%     96.58% |       31376      3.42%    100.00% |           0      0.00%    100.00% |           0      0.00%    100.00% |           0      0.00%    100.00% |           0      0.00%    100.00% |           0      0.00%    100.00% |           0      0.00%    100.00% |           0      0.00%    100.00% |           0      0.00%    100.00% |           0      0.00%    100.00% |           0      0.00%    100.00% |           0      0.00%    100.00% |           0      0.00%    100.00% |           0      0.00%    100.00% |           0      0.00%    100.00% |           0      0.00%    100.00% |           0      0.00%    100.00% |           0      0.00%    100.00% |           0      0.00%    100.00% |           0      0.00%    100.00% |           0      0.00%    100.00% |           0      0.00%    100.00% |           0      0.00%    100.00%
system.ruby.SimicsNetworkPortInterface_Controller.MessageSend::total       916744                      
system.ruby.SimicsNetworkPortInterface_Controller.MessageRecv |      210169     22.93%     22.93% |      458372     50.00%     72.93% |       29891      3.26%     76.19% |       30858      3.37%     79.55% |       31113      3.39%     82.95% |       31818      3.47%     86.42% |       30302      3.31%     89.72% |       31575      3.44%     93.17% |       31270      3.41%     96.58% |       31376      3.42%    100.00% |           0      0.00%    100.00% |           0      0.00%    100.00% |           0      0.00%    100.00% |           0      0.00%    100.00% |           0      0.00%    100.00% |           0      0.00%    100.00% |           0      0.00%    100.00% |           0      0.00%    100.00% |           0      0.00%    100.00% |           0      0.00%    100.00% |           0      0.00%    100.00% |           0      0.00%    100.00% |           0      0.00%    100.00% |           0      0.00%    100.00% |           0      0.00%    100.00% |           0      0.00%    100.00% |           0      0.00%    100.00% |           0      0.00%    100.00% |           0      0.00%    100.00% |           0      0.00%    100.00% |           0      0.00%    100.00% |           0      0.00%    100.00%
system.ruby.SimicsNetworkPortInterface_Controller.MessageRecv::total       916744                      
system.ruby.SimicsNetworkPortInterface_Controller.A.MessageSend |      210169     22.93%     22.93% |      458372     50.00%     72.93% |       29891      3.26%     76.19% |       30858      3.37%     79.55% |       31113      3.39%     82.95% |       31818      3.47%     86.42% |       30302      3.31%     89.72% |       31575      3.44%     93.17% |       31270      3.41%     96.58% |       31376      3.42%    100.00% |           0      0.00%    100.00% |           0      0.00%    100.00% |           0      0.00%    100.00% |           0      0.00%    100.00% |           0      0.00%    100.00% |           0      0.00%    100.00% |           0      0.00%    100.00% |           0      0.00%    100.00% |           0      0.00%    100.00% |           0      0.00%    100.00% |           0      0.00%    100.00% |           0      0.00%    100.00% |           0      0.00%    100.00% |           0      0.00%    100.00% |           0      0.00%    100.00% |           0      0.00%    100.00% |           0      0.00%    100.00% |           0      0.00%    100.00% |           0      0.00%    100.00% |           0      0.00%    100.00% |           0      0.00%    100.00% |           0      0.00%    100.00%
system.ruby.SimicsNetworkPortInterface_Controller.A.MessageSend::total       916744                      
system.ruby.SimicsNetworkPortInterface_Controller.A.MessageRecv |      210169     22.93%     22.93% |      458372     50.00%     72.93% |       29891      3.26%     76.19% |       30858      3.37%     79.55% |       31113      3.39%     82.95% |       31818      3.47%     86.42% |       30302      3.31%     89.72% |       31575      3.44%     93.17% |       31270      3.41%     96.58% |       31376      3.42%    100.00% |           0      0.00%    100.00% |           0      0.00%    100.00% |           0      0.00%    100.00% |           0      0.00%    100.00% |           0      0.00%    100.00% |           0      0.00%    100.00% |           0      0.00%    100.00% |           0      0.00%    100.00% |           0      0.00%    100.00% |           0      0.00%    100.00% |           0      0.00%    100.00% |           0      0.00%    100.00% |           0      0.00%    100.00% |           0      0.00%    100.00% |           0      0.00%    100.00% |           0      0.00%    100.00% |           0      0.00%    100.00% |           0      0.00%    100.00% |           0      0.00%    100.00% |           0      0.00%    100.00% |           0      0.00%    100.00% |           0      0.00%    100.00%
system.ruby.SimicsNetworkPortInterface_Controller.A.MessageRecv::total       916744                      
system.switch_cpus.kern.inst.arm                    0                       # number of arm instructions executed
system.switch_cpus.kern.inst.quiesce                0                       # number of quiesce instructions executed

---------- End Simulation Statistics   ----------
