
---------- Begin Simulation Statistics ----------
sim_seconds                                  0.068424                       # Number of seconds simulated
sim_ticks                                 68424219500                       # Number of ticks simulated
final_tick                               5244592298000                       # Number of ticks from beginning of simulation (restored from checkpoints and never reset)
sim_freq                                 1000000000000                       # Frequency of simulated ticks
host_inst_rate                                  54867                       # Simulator instruction rate (inst/s)
host_op_rate                                    94935                       # Simulator op (including micro ops) rate (op/s)
host_tick_rate                               74175437                       # Simulator tick rate (ticks/s)
host_mem_usage                                4829664                       # Number of bytes of host memory used
host_seconds                                   922.46                       # Real time elapsed on the host
sim_insts                                    50612807                       # Number of instructions simulated
sim_ops                                      87574498                       # Number of ops (including micro ops) simulated
system.voltage_domain.voltage                       1                       # Voltage in Volts
system.clk_domain.clock                           500                       # Clock period in ticks
system.mem_ctrls0.bytes_read::ruby.dir_cntrl0     14043072                       # Number of bytes read from this memory
system.mem_ctrls0.bytes_read::total          14043072                       # Number of bytes read from this memory
system.mem_ctrls0.bytes_written::ruby.dir_cntrl0      4009280                       # Number of bytes written to this memory
system.mem_ctrls0.bytes_written::total        4009280                       # Number of bytes written to this memory
system.mem_ctrls0.num_reads::ruby.dir_cntrl0       219423                       # Number of read requests responded to by this memory
system.mem_ctrls0.num_reads::total             219423                       # Number of read requests responded to by this memory
system.mem_ctrls0.num_writes::ruby.dir_cntrl0        62645                       # Number of write requests responded to by this memory
system.mem_ctrls0.num_writes::total             62645                       # Number of write requests responded to by this memory
system.mem_ctrls0.bw_read::ruby.dir_cntrl0    205235399                       # Total read bandwidth from this memory (bytes/s)
system.mem_ctrls0.bw_read::total            205235399                       # Total read bandwidth from this memory (bytes/s)
system.mem_ctrls0.bw_write::ruby.dir_cntrl0     58594457                       # Write bandwidth from this memory (bytes/s)
system.mem_ctrls0.bw_write::total            58594457                       # Write bandwidth from this memory (bytes/s)
system.mem_ctrls0.bw_total::ruby.dir_cntrl0    263829856                       # Total bandwidth to/from this memory (bytes/s)
system.mem_ctrls0.bw_total::total           263829856                       # Total bandwidth to/from this memory (bytes/s)
system.mem_ctrls0.readReqs                     219423                       # Number of read requests accepted
system.mem_ctrls0.writeReqs                     62645                       # Number of write requests accepted
system.mem_ctrls0.readBursts                   219423                       # Number of DRAM read bursts, including those serviced by the write queue
system.mem_ctrls0.writeBursts                   62645                       # Number of DRAM write bursts, including those merged in the write queue
system.mem_ctrls0.bytesReadDRAM              14041536                       # Total number of bytes read from DRAM
system.mem_ctrls0.bytesReadWrQ                   1536                       # Total number of bytes read from write queue
system.mem_ctrls0.bytesWritten                4009024                       # Total number of bytes written to DRAM
system.mem_ctrls0.bytesReadSys               14043072                       # Total read bytes from the system interface side
system.mem_ctrls0.bytesWrittenSys             4009280                       # Total written bytes from the system interface side
system.mem_ctrls0.servicedByWrQ                    24                       # Number of DRAM read bursts serviced by the write queue
system.mem_ctrls0.mergedWrBursts                    0                       # Number of DRAM write bursts merged with an existing one
system.mem_ctrls0.neitherReadNorWriteReqs            0                       # Number of requests that are neither read nor write
system.mem_ctrls0.perBankRdBursts::0            13466                       # Per bank write bursts
system.mem_ctrls0.perBankRdBursts::1            14019                       # Per bank write bursts
system.mem_ctrls0.perBankRdBursts::2            13693                       # Per bank write bursts
system.mem_ctrls0.perBankRdBursts::3            14063                       # Per bank write bursts
system.mem_ctrls0.perBankRdBursts::4            13710                       # Per bank write bursts
system.mem_ctrls0.perBankRdBursts::5            14269                       # Per bank write bursts
system.mem_ctrls0.perBankRdBursts::6            13745                       # Per bank write bursts
system.mem_ctrls0.perBankRdBursts::7            13683                       # Per bank write bursts
system.mem_ctrls0.perBankRdBursts::8            13581                       # Per bank write bursts
system.mem_ctrls0.perBankRdBursts::9            13904                       # Per bank write bursts
system.mem_ctrls0.perBankRdBursts::10           13620                       # Per bank write bursts
system.mem_ctrls0.perBankRdBursts::11           13843                       # Per bank write bursts
system.mem_ctrls0.perBankRdBursts::12           13385                       # Per bank write bursts
system.mem_ctrls0.perBankRdBursts::13           13273                       # Per bank write bursts
system.mem_ctrls0.perBankRdBursts::14           13570                       # Per bank write bursts
system.mem_ctrls0.perBankRdBursts::15           13575                       # Per bank write bursts
system.mem_ctrls0.perBankWrBursts::0             3851                       # Per bank write bursts
system.mem_ctrls0.perBankWrBursts::1             3929                       # Per bank write bursts
system.mem_ctrls0.perBankWrBursts::2             3908                       # Per bank write bursts
system.mem_ctrls0.perBankWrBursts::3             4132                       # Per bank write bursts
system.mem_ctrls0.perBankWrBursts::4             3923                       # Per bank write bursts
system.mem_ctrls0.perBankWrBursts::5             4075                       # Per bank write bursts
system.mem_ctrls0.perBankWrBursts::6             3985                       # Per bank write bursts
system.mem_ctrls0.perBankWrBursts::7             3957                       # Per bank write bursts
system.mem_ctrls0.perBankWrBursts::8             3819                       # Per bank write bursts
system.mem_ctrls0.perBankWrBursts::9             4075                       # Per bank write bursts
system.mem_ctrls0.perBankWrBursts::10            3837                       # Per bank write bursts
system.mem_ctrls0.perBankWrBursts::11            3781                       # Per bank write bursts
system.mem_ctrls0.perBankWrBursts::12            3724                       # Per bank write bursts
system.mem_ctrls0.perBankWrBursts::13            3762                       # Per bank write bursts
system.mem_ctrls0.perBankWrBursts::14            4014                       # Per bank write bursts
system.mem_ctrls0.perBankWrBursts::15            3869                       # Per bank write bursts
system.mem_ctrls0.numRdRetry                      227                       # Number of times read queue was full causing retry
system.mem_ctrls0.numWrRetry                      138                       # Number of times write queue was full causing retry
system.mem_ctrls0.totGap                  68423728000                       # Total gap between requests
system.mem_ctrls0.readPktSize::0                    0                       # Read request sizes (log2)
system.mem_ctrls0.readPktSize::1                    0                       # Read request sizes (log2)
system.mem_ctrls0.readPktSize::2                    0                       # Read request sizes (log2)
system.mem_ctrls0.readPktSize::3                    0                       # Read request sizes (log2)
system.mem_ctrls0.readPktSize::4                    0                       # Read request sizes (log2)
system.mem_ctrls0.readPktSize::5                    0                       # Read request sizes (log2)
system.mem_ctrls0.readPktSize::6               219423                       # Read request sizes (log2)
system.mem_ctrls0.writePktSize::0                   0                       # Write request sizes (log2)
system.mem_ctrls0.writePktSize::1                   0                       # Write request sizes (log2)
system.mem_ctrls0.writePktSize::2                   0                       # Write request sizes (log2)
system.mem_ctrls0.writePktSize::3                   0                       # Write request sizes (log2)
system.mem_ctrls0.writePktSize::4                   0                       # Write request sizes (log2)
system.mem_ctrls0.writePktSize::5                   0                       # Write request sizes (log2)
system.mem_ctrls0.writePktSize::6               62645                       # Write request sizes (log2)
system.mem_ctrls0.rdQLenPdf::0                 194472                       # What read queue length does an incoming req see
system.mem_ctrls0.rdQLenPdf::1                  22382                       # What read queue length does an incoming req see
system.mem_ctrls0.rdQLenPdf::2                   1663                       # What read queue length does an incoming req see
system.mem_ctrls0.rdQLenPdf::3                    154                       # What read queue length does an incoming req see
system.mem_ctrls0.rdQLenPdf::4                     80                       # What read queue length does an incoming req see
system.mem_ctrls0.rdQLenPdf::5                     46                       # What read queue length does an incoming req see
system.mem_ctrls0.rdQLenPdf::6                     43                       # What read queue length does an incoming req see
system.mem_ctrls0.rdQLenPdf::7                     43                       # What read queue length does an incoming req see
system.mem_ctrls0.rdQLenPdf::8                     42                       # What read queue length does an incoming req see
system.mem_ctrls0.rdQLenPdf::9                     35                       # What read queue length does an incoming req see
system.mem_ctrls0.rdQLenPdf::10                    27                       # What read queue length does an incoming req see
system.mem_ctrls0.rdQLenPdf::11                    26                       # What read queue length does an incoming req see
system.mem_ctrls0.rdQLenPdf::12                    21                       # What read queue length does an incoming req see
system.mem_ctrls0.rdQLenPdf::13                    20                       # What read queue length does an incoming req see
system.mem_ctrls0.rdQLenPdf::14                    17                       # What read queue length does an incoming req see
system.mem_ctrls0.rdQLenPdf::15                    15                       # What read queue length does an incoming req see
system.mem_ctrls0.rdQLenPdf::16                    12                       # What read queue length does an incoming req see
system.mem_ctrls0.rdQLenPdf::17                     6                       # What read queue length does an incoming req see
system.mem_ctrls0.rdQLenPdf::18                     4                       # What read queue length does an incoming req see
system.mem_ctrls0.rdQLenPdf::19                     4                       # What read queue length does an incoming req see
system.mem_ctrls0.rdQLenPdf::20                     5                       # What read queue length does an incoming req see
system.mem_ctrls0.rdQLenPdf::21                     3                       # What read queue length does an incoming req see
system.mem_ctrls0.rdQLenPdf::22                     3                       # What read queue length does an incoming req see
system.mem_ctrls0.rdQLenPdf::23                     3                       # What read queue length does an incoming req see
system.mem_ctrls0.rdQLenPdf::24                     2                       # What read queue length does an incoming req see
system.mem_ctrls0.rdQLenPdf::25                     1                       # What read queue length does an incoming req see
system.mem_ctrls0.rdQLenPdf::26                     3                       # What read queue length does an incoming req see
system.mem_ctrls0.rdQLenPdf::27                     4                       # What read queue length does an incoming req see
system.mem_ctrls0.rdQLenPdf::28                     4                       # What read queue length does an incoming req see
system.mem_ctrls0.rdQLenPdf::29                     6                       # What read queue length does an incoming req see
system.mem_ctrls0.rdQLenPdf::30                     6                       # What read queue length does an incoming req see
system.mem_ctrls0.rdQLenPdf::31                   247                       # What read queue length does an incoming req see
system.mem_ctrls0.wrQLenPdf::0                  12374                       # What write queue length does an incoming req see
system.mem_ctrls0.wrQLenPdf::1                  12498                       # What write queue length does an incoming req see
system.mem_ctrls0.wrQLenPdf::2                  12494                       # What write queue length does an incoming req see
system.mem_ctrls0.wrQLenPdf::3                  12459                       # What write queue length does an incoming req see
system.mem_ctrls0.wrQLenPdf::4                  12427                       # What write queue length does an incoming req see
system.mem_ctrls0.wrQLenPdf::5                    106                       # What write queue length does an incoming req see
system.mem_ctrls0.wrQLenPdf::6                     73                       # What write queue length does an incoming req see
system.mem_ctrls0.wrQLenPdf::7                    214                       # What write queue length does an incoming req see
system.mem_ctrls0.bytesPerActivate::samples        68528                       # Bytes accessed per row activation
system.mem_ctrls0.bytesPerActivate::mean   263.392949                       # Bytes accessed per row activation
system.mem_ctrls0.bytesPerActivate::gmean   172.790483                       # Bytes accessed per row activation
system.mem_ctrls0.bytesPerActivate::stdev   269.959951                       # Bytes accessed per row activation
system.mem_ctrls0.bytesPerActivate::0-127        22623     33.01%     33.01% # Bytes accessed per row activation
system.mem_ctrls0.bytesPerActivate::128-255        18470     26.95%     59.97% # Bytes accessed per row activation
system.mem_ctrls0.bytesPerActivate::256-383        14862     21.69%     81.65% # Bytes accessed per row activation
system.mem_ctrls0.bytesPerActivate::384-511         2739      4.00%     85.65% # Bytes accessed per row activation
system.mem_ctrls0.bytesPerActivate::512-639         1964      2.87%     88.52% # Bytes accessed per row activation
system.mem_ctrls0.bytesPerActivate::640-767         1239      1.81%     90.32% # Bytes accessed per row activation
system.mem_ctrls0.bytesPerActivate::768-895         1096      1.60%     91.92% # Bytes accessed per row activation
system.mem_ctrls0.bytesPerActivate::896-1023          923      1.35%     93.27% # Bytes accessed per row activation
system.mem_ctrls0.bytesPerActivate::1024-1151         4612      6.73%    100.00% # Bytes accessed per row activation
system.mem_ctrls0.bytesPerActivate::total        68528                       # Bytes accessed per row activation
system.mem_ctrls0.rdPerTurnAround::samples        12390                       # Reads before turning the bus around for writes
system.mem_ctrls0.rdPerTurnAround::mean     17.535997                       # Reads before turning the bus around for writes
system.mem_ctrls0.rdPerTurnAround::stdev    79.245942                       # Reads before turning the bus around for writes
system.mem_ctrls0.rdPerTurnAround::0-127        12029     97.09%     97.09% # Reads before turning the bus around for writes
system.mem_ctrls0.rdPerTurnAround::128-255          159      1.28%     98.37% # Reads before turning the bus around for writes
system.mem_ctrls0.rdPerTurnAround::256-383          103      0.83%     99.20% # Reads before turning the bus around for writes
system.mem_ctrls0.rdPerTurnAround::384-511           26      0.21%     99.41% # Reads before turning the bus around for writes
system.mem_ctrls0.rdPerTurnAround::512-639           46      0.37%     99.78% # Reads before turning the bus around for writes
system.mem_ctrls0.rdPerTurnAround::640-767            5      0.04%     99.82% # Reads before turning the bus around for writes
system.mem_ctrls0.rdPerTurnAround::768-895           10      0.08%     99.90% # Reads before turning the bus around for writes
system.mem_ctrls0.rdPerTurnAround::896-1023            1      0.01%     99.91% # Reads before turning the bus around for writes
system.mem_ctrls0.rdPerTurnAround::1024-1151            4      0.03%     99.94% # Reads before turning the bus around for writes
system.mem_ctrls0.rdPerTurnAround::1152-1279            2      0.02%     99.96% # Reads before turning the bus around for writes
system.mem_ctrls0.rdPerTurnAround::1280-1407            1      0.01%     99.97% # Reads before turning the bus around for writes
system.mem_ctrls0.rdPerTurnAround::1408-1535            1      0.01%     99.98% # Reads before turning the bus around for writes
system.mem_ctrls0.rdPerTurnAround::1536-1663            1      0.01%     99.98% # Reads before turning the bus around for writes
system.mem_ctrls0.rdPerTurnAround::1664-1791            1      0.01%     99.99% # Reads before turning the bus around for writes
system.mem_ctrls0.rdPerTurnAround::3968-4095            1      0.01%    100.00% # Reads before turning the bus around for writes
system.mem_ctrls0.rdPerTurnAround::total        12390                       # Reads before turning the bus around for writes
system.mem_ctrls0.wrPerTurnAround::samples        12390                       # Writes before turning the bus around for reads
system.mem_ctrls0.wrPerTurnAround::mean      5.055771                       # Writes before turning the bus around for reads
system.mem_ctrls0.wrPerTurnAround::gmean     5.039184                       # Writes before turning the bus around for reads
system.mem_ctrls0.wrPerTurnAround::stdev     0.583663                       # Writes before turning the bus around for reads
system.mem_ctrls0.wrPerTurnAround::4-7          12339     99.59%     99.59% # Writes before turning the bus around for reads
system.mem_ctrls0.wrPerTurnAround::8-11            19      0.15%     99.74% # Writes before turning the bus around for reads
system.mem_ctrls0.wrPerTurnAround::12-15            9      0.07%     99.81% # Writes before turning the bus around for reads
system.mem_ctrls0.wrPerTurnAround::16-19           23      0.19%    100.00% # Writes before turning the bus around for reads
system.mem_ctrls0.wrPerTurnAround::total        12390                       # Writes before turning the bus around for reads
system.mem_ctrls0.totQLat                  1910867156                       # Total ticks spent queuing
system.mem_ctrls0.totMemAccLat             6024598406                       # Total ticks spent from burst creation until serviced by the DRAM
system.mem_ctrls0.totBusLat                1096995000                       # Total ticks spent in databus transfers
system.mem_ctrls0.avgQLat                     8709.55                       # Average queueing delay per DRAM burst
system.mem_ctrls0.avgBusLat                   5000.00                       # Average bus latency per DRAM burst
system.mem_ctrls0.avgMemAccLat               27459.55                       # Average memory access latency per DRAM burst
system.mem_ctrls0.avgRdBW                      205.21                       # Average DRAM read bandwidth in MiByte/s
system.mem_ctrls0.avgWrBW                       58.59                       # Average achieved write bandwidth in MiByte/s
system.mem_ctrls0.avgRdBWSys                   205.24                       # Average system read bandwidth in MiByte/s
system.mem_ctrls0.avgWrBWSys                    58.59                       # Average system write bandwidth in MiByte/s
system.mem_ctrls0.peakBW                     12800.00                       # Theoretical peak bandwidth in MiByte/s
system.mem_ctrls0.busUtil                        2.06                       # Data bus utilization in percentage
system.mem_ctrls0.busUtilRead                    1.60                       # Data bus utilization in percentage for reads
system.mem_ctrls0.busUtilWrite                   0.46                       # Data bus utilization in percentage for writes
system.mem_ctrls0.avgRdQLen                      1.08                       # Average read queue length when enqueuing
system.mem_ctrls0.avgWrQLen                      2.88                       # Average write queue length when enqueuing
system.mem_ctrls0.readRowHits                  173607                       # Number of row buffer hits during reads
system.mem_ctrls0.writeRowHits                  39897                       # Number of row buffer hits during writes
system.mem_ctrls0.readRowHitRate                79.13                       # Row buffer hit rate for reads
system.mem_ctrls0.writeRowHitRate               63.69                       # Row buffer hit rate for writes
system.mem_ctrls0.avgGap                    242578.84                       # Average gap between requests
system.mem_ctrls0.pageHitRate                   75.70                       # Row buffer hit rate, read and write combined
system.mem_ctrls0.memoryStateTime::IDLE   10896026750                       # Time in different power states
system.mem_ctrls0.memoryStateTime::REF     2284620000                       # Time in different power states
system.mem_ctrls0.memoryStateTime::PRE_PDN            0                       # Time in different power states
system.mem_ctrls0.memoryStateTime::ACT    55237405750                       # Time in different power states
system.mem_ctrls0.memoryStateTime::ACT_PDN            0                       # Time in different power states
system.mem_ctrls0.actEnergy::0              264925080                       # Energy for activate commands per rank (pJ)
system.mem_ctrls0.actEnergy::1              253116360                       # Energy for activate commands per rank (pJ)
system.mem_ctrls0.preEnergy::0              144552375                       # Energy for precharge commands per rank (pJ)
system.mem_ctrls0.preEnergy::1              138109125                       # Energy for precharge commands per rank (pJ)
system.mem_ctrls0.readEnergy::0             862968600                       # Energy for read commands per rank (pJ)
system.mem_ctrls0.readEnergy::1             848211000                       # Energy for read commands per rank (pJ)
system.mem_ctrls0.writeEnergy::0            205804800                       # Energy for write commands per rank (pJ)
system.mem_ctrls0.writeEnergy::1            200108880                       # Energy for write commands per rank (pJ)
system.mem_ctrls0.refreshEnergy::0         4468716720                       # Energy for refresh commands per rank (pJ)
system.mem_ctrls0.refreshEnergy::1         4468716720                       # Energy for refresh commands per rank (pJ)
system.mem_ctrls0.actBackEnergy::0        31274119890                       # Energy for active background per rank (pJ)
system.mem_ctrls0.actBackEnergy::1        30627711675                       # Energy for active background per rank (pJ)
system.mem_ctrls0.preBackEnergy::0        13617384750                       # Energy for precharge background per rank (pJ)
system.mem_ctrls0.preBackEnergy::1        14184409500                       # Energy for precharge background per rank (pJ)
system.mem_ctrls0.totalEnergy::0          50838472215                       # Total energy per rank (pJ)
system.mem_ctrls0.totalEnergy::1          50720383260                       # Total energy per rank (pJ)
system.mem_ctrls0.averagePower::0          743.056556                       # Core power per rank (mW)
system.mem_ctrls0.averagePower::1          741.330564                       # Core power per rank (mW)
system.mem_ctrls1.bytes_read::ruby.dir_cntrl1     13860352                       # Number of bytes read from this memory
system.mem_ctrls1.bytes_read::total          13860352                       # Number of bytes read from this memory
system.mem_ctrls1.bytes_written::ruby.dir_cntrl1      3841984                       # Number of bytes written to this memory
system.mem_ctrls1.bytes_written::total        3841984                       # Number of bytes written to this memory
system.mem_ctrls1.num_reads::ruby.dir_cntrl1       216568                       # Number of read requests responded to by this memory
system.mem_ctrls1.num_reads::total             216568                       # Number of read requests responded to by this memory
system.mem_ctrls1.num_writes::ruby.dir_cntrl1        60031                       # Number of write requests responded to by this memory
system.mem_ctrls1.num_writes::total             60031                       # Number of write requests responded to by this memory
system.mem_ctrls1.bw_read::ruby.dir_cntrl1    202565000                       # Total read bandwidth from this memory (bytes/s)
system.mem_ctrls1.bw_read::total            202565000                       # Total read bandwidth from this memory (bytes/s)
system.mem_ctrls1.bw_write::ruby.dir_cntrl1     56149475                       # Write bandwidth from this memory (bytes/s)
system.mem_ctrls1.bw_write::total            56149475                       # Write bandwidth from this memory (bytes/s)
system.mem_ctrls1.bw_total::ruby.dir_cntrl1    258714475                       # Total bandwidth to/from this memory (bytes/s)
system.mem_ctrls1.bw_total::total           258714475                       # Total bandwidth to/from this memory (bytes/s)
system.mem_ctrls1.readReqs                     216568                       # Number of read requests accepted
system.mem_ctrls1.writeReqs                     60031                       # Number of write requests accepted
system.mem_ctrls1.readBursts                   216568                       # Number of DRAM read bursts, including those serviced by the write queue
system.mem_ctrls1.writeBursts                   60031                       # Number of DRAM write bursts, including those merged in the write queue
system.mem_ctrls1.bytesReadDRAM              13859008                       # Total number of bytes read from DRAM
system.mem_ctrls1.bytesReadWrQ                   1344                       # Total number of bytes read from write queue
system.mem_ctrls1.bytesWritten                3841920                       # Total number of bytes written to DRAM
system.mem_ctrls1.bytesReadSys               13860352                       # Total read bytes from the system interface side
system.mem_ctrls1.bytesWrittenSys             3841984                       # Total written bytes from the system interface side
system.mem_ctrls1.servicedByWrQ                    21                       # Number of DRAM read bursts serviced by the write queue
system.mem_ctrls1.mergedWrBursts                    0                       # Number of DRAM write bursts merged with an existing one
system.mem_ctrls1.neitherReadNorWriteReqs            0                       # Number of requests that are neither read nor write
system.mem_ctrls1.perBankRdBursts::0            13292                       # Per bank write bursts
system.mem_ctrls1.perBankRdBursts::1            13845                       # Per bank write bursts
system.mem_ctrls1.perBankRdBursts::2            13515                       # Per bank write bursts
system.mem_ctrls1.perBankRdBursts::3            13893                       # Per bank write bursts
system.mem_ctrls1.perBankRdBursts::4            13549                       # Per bank write bursts
system.mem_ctrls1.perBankRdBursts::5            14109                       # Per bank write bursts
system.mem_ctrls1.perBankRdBursts::6            13543                       # Per bank write bursts
system.mem_ctrls1.perBankRdBursts::7            13522                       # Per bank write bursts
system.mem_ctrls1.perBankRdBursts::8            13423                       # Per bank write bursts
system.mem_ctrls1.perBankRdBursts::9            13722                       # Per bank write bursts
system.mem_ctrls1.perBankRdBursts::10           13427                       # Per bank write bursts
system.mem_ctrls1.perBankRdBursts::11           13660                       # Per bank write bursts
system.mem_ctrls1.perBankRdBursts::12           13211                       # Per bank write bursts
system.mem_ctrls1.perBankRdBursts::13           13114                       # Per bank write bursts
system.mem_ctrls1.perBankRdBursts::14           13297                       # Per bank write bursts
system.mem_ctrls1.perBankRdBursts::15           13425                       # Per bank write bursts
system.mem_ctrls1.perBankWrBursts::0             3693                       # Per bank write bursts
system.mem_ctrls1.perBankWrBursts::1             3781                       # Per bank write bursts
system.mem_ctrls1.perBankWrBursts::2             3774                       # Per bank write bursts
system.mem_ctrls1.perBankWrBursts::3             3979                       # Per bank write bursts
system.mem_ctrls1.perBankWrBursts::4             3767                       # Per bank write bursts
system.mem_ctrls1.perBankWrBursts::5             3929                       # Per bank write bursts
system.mem_ctrls1.perBankWrBursts::6             3803                       # Per bank write bursts
system.mem_ctrls1.perBankWrBursts::7             3786                       # Per bank write bursts
system.mem_ctrls1.perBankWrBursts::8             3663                       # Per bank write bursts
system.mem_ctrls1.perBankWrBursts::9             3896                       # Per bank write bursts
system.mem_ctrls1.perBankWrBursts::10            3672                       # Per bank write bursts
system.mem_ctrls1.perBankWrBursts::11            3615                       # Per bank write bursts
system.mem_ctrls1.perBankWrBursts::12            3566                       # Per bank write bursts
system.mem_ctrls1.perBankWrBursts::13            3597                       # Per bank write bursts
system.mem_ctrls1.perBankWrBursts::14            3797                       # Per bank write bursts
system.mem_ctrls1.perBankWrBursts::15            3712                       # Per bank write bursts
system.mem_ctrls1.numRdRetry                       36                       # Number of times read queue was full causing retry
system.mem_ctrls1.numWrRetry                       84                       # Number of times write queue was full causing retry
system.mem_ctrls1.totGap                  68423469000                       # Total gap between requests
system.mem_ctrls1.readPktSize::0                    0                       # Read request sizes (log2)
system.mem_ctrls1.readPktSize::1                    0                       # Read request sizes (log2)
system.mem_ctrls1.readPktSize::2                    0                       # Read request sizes (log2)
system.mem_ctrls1.readPktSize::3                    0                       # Read request sizes (log2)
system.mem_ctrls1.readPktSize::4                    0                       # Read request sizes (log2)
system.mem_ctrls1.readPktSize::5                    0                       # Read request sizes (log2)
system.mem_ctrls1.readPktSize::6               216568                       # Read request sizes (log2)
system.mem_ctrls1.writePktSize::0                   0                       # Write request sizes (log2)
system.mem_ctrls1.writePktSize::1                   0                       # Write request sizes (log2)
system.mem_ctrls1.writePktSize::2                   0                       # Write request sizes (log2)
system.mem_ctrls1.writePktSize::3                   0                       # Write request sizes (log2)
system.mem_ctrls1.writePktSize::4                   0                       # Write request sizes (log2)
system.mem_ctrls1.writePktSize::5                   0                       # Write request sizes (log2)
system.mem_ctrls1.writePktSize::6               60031                       # Write request sizes (log2)
system.mem_ctrls1.rdQLenPdf::0                 191605                       # What read queue length does an incoming req see
system.mem_ctrls1.rdQLenPdf::1                  22534                       # What read queue length does an incoming req see
system.mem_ctrls1.rdQLenPdf::2                   1606                       # What read queue length does an incoming req see
system.mem_ctrls1.rdQLenPdf::3                    147                       # What read queue length does an incoming req see
system.mem_ctrls1.rdQLenPdf::4                     66                       # What read queue length does an incoming req see
system.mem_ctrls1.rdQLenPdf::5                     49                       # What read queue length does an incoming req see
system.mem_ctrls1.rdQLenPdf::6                     46                       # What read queue length does an incoming req see
system.mem_ctrls1.rdQLenPdf::7                     31                       # What read queue length does an incoming req see
system.mem_ctrls1.rdQLenPdf::8                     30                       # What read queue length does an incoming req see
system.mem_ctrls1.rdQLenPdf::9                     27                       # What read queue length does an incoming req see
system.mem_ctrls1.rdQLenPdf::10                    29                       # What read queue length does an incoming req see
system.mem_ctrls1.rdQLenPdf::11                    24                       # What read queue length does an incoming req see
system.mem_ctrls1.rdQLenPdf::12                    25                       # What read queue length does an incoming req see
system.mem_ctrls1.rdQLenPdf::13                    12                       # What read queue length does an incoming req see
system.mem_ctrls1.rdQLenPdf::14                    15                       # What read queue length does an incoming req see
system.mem_ctrls1.rdQLenPdf::15                    23                       # What read queue length does an incoming req see
system.mem_ctrls1.rdQLenPdf::16                    16                       # What read queue length does an incoming req see
system.mem_ctrls1.rdQLenPdf::17                    22                       # What read queue length does an incoming req see
system.mem_ctrls1.rdQLenPdf::18                    12                       # What read queue length does an incoming req see
system.mem_ctrls1.rdQLenPdf::19                    16                       # What read queue length does an incoming req see
system.mem_ctrls1.rdQLenPdf::20                    13                       # What read queue length does an incoming req see
system.mem_ctrls1.rdQLenPdf::21                    13                       # What read queue length does an incoming req see
system.mem_ctrls1.rdQLenPdf::22                    21                       # What read queue length does an incoming req see
system.mem_ctrls1.rdQLenPdf::23                    18                       # What read queue length does an incoming req see
system.mem_ctrls1.rdQLenPdf::24                    13                       # What read queue length does an incoming req see
system.mem_ctrls1.rdQLenPdf::25                    17                       # What read queue length does an incoming req see
system.mem_ctrls1.rdQLenPdf::26                    11                       # What read queue length does an incoming req see
system.mem_ctrls1.rdQLenPdf::27                    12                       # What read queue length does an incoming req see
system.mem_ctrls1.rdQLenPdf::28                    14                       # What read queue length does an incoming req see
system.mem_ctrls1.rdQLenPdf::29                    13                       # What read queue length does an incoming req see
system.mem_ctrls1.rdQLenPdf::30                    18                       # What read queue length does an incoming req see
system.mem_ctrls1.rdQLenPdf::31                    49                       # What read queue length does an incoming req see
system.mem_ctrls1.wrQLenPdf::0                  11869                       # What write queue length does an incoming req see
system.mem_ctrls1.wrQLenPdf::1                  11977                       # What write queue length does an incoming req see
system.mem_ctrls1.wrQLenPdf::2                  11977                       # What write queue length does an incoming req see
system.mem_ctrls1.wrQLenPdf::3                  11950                       # What write queue length does an incoming req see
system.mem_ctrls1.wrQLenPdf::4                  11928                       # What write queue length does an incoming req see
system.mem_ctrls1.wrQLenPdf::5                    120                       # What write queue length does an incoming req see
system.mem_ctrls1.wrQLenPdf::6                     79                       # What write queue length does an incoming req see
system.mem_ctrls1.wrQLenPdf::7                    131                       # What write queue length does an incoming req see
system.mem_ctrls1.bytesPerActivate::samples        64239                       # Bytes accessed per row activation
system.mem_ctrls1.bytesPerActivate::mean   275.532060                       # Bytes accessed per row activation
system.mem_ctrls1.bytesPerActivate::gmean   181.777662                       # Bytes accessed per row activation
system.mem_ctrls1.bytesPerActivate::stdev   276.132061                       # Bytes accessed per row activation
system.mem_ctrls1.bytesPerActivate::0-127        19245     29.96%     29.96% # Bytes accessed per row activation
system.mem_ctrls1.bytesPerActivate::128-255        17829     27.75%     57.71% # Bytes accessed per row activation
system.mem_ctrls1.bytesPerActivate::256-383        14648     22.80%     80.51% # Bytes accessed per row activation
system.mem_ctrls1.bytesPerActivate::384-511         2587      4.03%     84.54% # Bytes accessed per row activation
system.mem_ctrls1.bytesPerActivate::512-639         1941      3.02%     87.56% # Bytes accessed per row activation
system.mem_ctrls1.bytesPerActivate::640-767         1294      2.01%     89.58% # Bytes accessed per row activation
system.mem_ctrls1.bytesPerActivate::768-895         1100      1.71%     91.29% # Bytes accessed per row activation
system.mem_ctrls1.bytesPerActivate::896-1023          895      1.39%     92.68% # Bytes accessed per row activation
system.mem_ctrls1.bytesPerActivate::1024-1151         4700      7.32%    100.00% # Bytes accessed per row activation
system.mem_ctrls1.bytesPerActivate::total        64239                       # Bytes accessed per row activation
system.mem_ctrls1.rdPerTurnAround::samples        11882                       # Reads before turning the bus around for writes
system.mem_ctrls1.rdPerTurnAround::mean     18.046457                       # Reads before turning the bus around for writes
system.mem_ctrls1.rdPerTurnAround::stdev    80.270300                       # Reads before turning the bus around for writes
system.mem_ctrls1.rdPerTurnAround::0-127        11526     97.00%     97.00% # Reads before turning the bus around for writes
system.mem_ctrls1.rdPerTurnAround::128-255          154      1.30%     98.30% # Reads before turning the bus around for writes
system.mem_ctrls1.rdPerTurnAround::256-383           91      0.77%     99.07% # Reads before turning the bus around for writes
system.mem_ctrls1.rdPerTurnAround::384-511           38      0.32%     99.39% # Reads before turning the bus around for writes
system.mem_ctrls1.rdPerTurnAround::512-639           48      0.40%     99.79% # Reads before turning the bus around for writes
system.mem_ctrls1.rdPerTurnAround::640-767            5      0.04%     99.83% # Reads before turning the bus around for writes
system.mem_ctrls1.rdPerTurnAround::768-895            5      0.04%     99.87% # Reads before turning the bus around for writes
system.mem_ctrls1.rdPerTurnAround::896-1023            2      0.02%     99.89% # Reads before turning the bus around for writes
system.mem_ctrls1.rdPerTurnAround::1024-1151            4      0.03%     99.92% # Reads before turning the bus around for writes
system.mem_ctrls1.rdPerTurnAround::1152-1279            2      0.02%     99.94% # Reads before turning the bus around for writes
system.mem_ctrls1.rdPerTurnAround::1280-1407            1      0.01%     99.95% # Reads before turning the bus around for writes
system.mem_ctrls1.rdPerTurnAround::1408-1535            1      0.01%     99.96% # Reads before turning the bus around for writes
system.mem_ctrls1.rdPerTurnAround::1536-1663            3      0.03%     99.98% # Reads before turning the bus around for writes
system.mem_ctrls1.rdPerTurnAround::2304-2431            1      0.01%     99.99% # Reads before turning the bus around for writes
system.mem_ctrls1.rdPerTurnAround::2816-2943            1      0.01%    100.00% # Reads before turning the bus around for writes
system.mem_ctrls1.rdPerTurnAround::total        11882                       # Reads before turning the bus around for writes
system.mem_ctrls1.wrPerTurnAround::samples        11882                       # Writes before turning the bus around for reads
system.mem_ctrls1.wrPerTurnAround::mean      5.052180                       # Writes before turning the bus around for reads
system.mem_ctrls1.wrPerTurnAround::gmean     5.037565                       # Writes before turning the bus around for reads
system.mem_ctrls1.wrPerTurnAround::stdev     0.540557                       # Writes before turning the bus around for reads
system.mem_ctrls1.wrPerTurnAround::4-7          11835     99.60%     99.60% # Writes before turning the bus around for reads
system.mem_ctrls1.wrPerTurnAround::8-11            18      0.15%     99.76% # Writes before turning the bus around for reads
system.mem_ctrls1.wrPerTurnAround::12-15           15      0.13%     99.88% # Writes before turning the bus around for reads
system.mem_ctrls1.wrPerTurnAround::16-19           14      0.12%    100.00% # Writes before turning the bus around for reads
system.mem_ctrls1.wrPerTurnAround::total        11882                       # Writes before turning the bus around for reads
system.mem_ctrls1.totQLat                  1792156188                       # Total ticks spent queuing
system.mem_ctrls1.totMemAccLat             5852412438                       # Total ticks spent from burst creation until serviced by the DRAM
system.mem_ctrls1.totBusLat                1082735000                       # Total ticks spent in databus transfers
system.mem_ctrls1.avgQLat                     8276.06                       # Average queueing delay per DRAM burst
system.mem_ctrls1.avgBusLat                   5000.00                       # Average bus latency per DRAM burst
system.mem_ctrls1.avgMemAccLat               27026.06                       # Average memory access latency per DRAM burst
system.mem_ctrls1.avgRdBW                      202.55                       # Average DRAM read bandwidth in MiByte/s
system.mem_ctrls1.avgWrBW                       56.15                       # Average achieved write bandwidth in MiByte/s
system.mem_ctrls1.avgRdBWSys                   202.56                       # Average system read bandwidth in MiByte/s
system.mem_ctrls1.avgWrBWSys                    56.15                       # Average system write bandwidth in MiByte/s
system.mem_ctrls1.peakBW                     12800.00                       # Theoretical peak bandwidth in MiByte/s
system.mem_ctrls1.busUtil                        2.02                       # Data bus utilization in percentage
system.mem_ctrls1.busUtilRead                    1.58                       # Data bus utilization in percentage for reads
system.mem_ctrls1.busUtilWrite                   0.44                       # Data bus utilization in percentage for writes
system.mem_ctrls1.avgRdQLen                      1.07                       # Average read queue length when enqueuing
system.mem_ctrls1.avgWrQLen                      2.94                       # Average write queue length when enqueuing
system.mem_ctrls1.readRowHits                  172165                       # Number of row buffer hits during reads
system.mem_ctrls1.writeRowHits                  40165                       # Number of row buffer hits during writes
system.mem_ctrls1.readRowHitRate                79.50                       # Row buffer hit rate for reads
system.mem_ctrls1.writeRowHitRate               66.91                       # Row buffer hit rate for writes
system.mem_ctrls1.avgGap                    247374.25                       # Average gap between requests
system.mem_ctrls1.pageHitRate                   76.77                       # Row buffer hit rate, read and write combined
system.mem_ctrls1.memoryStateTime::IDLE   11325476000                       # Time in different power states
system.mem_ctrls1.memoryStateTime::REF     2284620000                       # Time in different power states
system.mem_ctrls1.memoryStateTime::PRE_PDN            0                       # Time in different power states
system.mem_ctrls1.memoryStateTime::ACT    54808087000                       # Time in different power states
system.mem_ctrls1.memoryStateTime::ACT_PDN            0                       # Time in different power states
system.mem_ctrls1.actEnergy::0              249434640                       # Energy for activate commands per rank (pJ)
system.mem_ctrls1.actEnergy::1              236204640                       # Energy for activate commands per rank (pJ)
system.mem_ctrls1.preEnergy::0              136100250                       # Energy for precharge commands per rank (pJ)
system.mem_ctrls1.preEnergy::1              128881500                       # Energy for precharge commands per rank (pJ)
system.mem_ctrls1.readEnergy::0             852196800                       # Energy for read commands per rank (pJ)
system.mem_ctrls1.readEnergy::1             836737200                       # Energy for read commands per rank (pJ)
system.mem_ctrls1.writeEnergy::0            197717760                       # Energy for write commands per rank (pJ)
system.mem_ctrls1.writeEnergy::1            191276640                       # Energy for write commands per rank (pJ)
system.mem_ctrls1.refreshEnergy::0         4468716720                       # Energy for refresh commands per rank (pJ)
system.mem_ctrls1.refreshEnergy::1         4468716720                       # Energy for refresh commands per rank (pJ)
system.mem_ctrls1.actBackEnergy::0        30960373365                       # Energy for active background per rank (pJ)
system.mem_ctrls1.actBackEnergy::1        30060951840                       # Energy for active background per rank (pJ)
system.mem_ctrls1.preBackEnergy::0        13892601000                       # Energy for precharge background per rank (pJ)
system.mem_ctrls1.preBackEnergy::1        14681567250                       # Energy for precharge background per rank (pJ)
system.mem_ctrls1.totalEnergy::0          50757140535                       # Total energy per rank (pJ)
system.mem_ctrls1.totalEnergy::1          50604335790                       # Total energy per rank (pJ)
system.mem_ctrls1.averagePower::0          741.867809                       # Core power per rank (mW)
system.mem_ctrls1.averagePower::1          739.634411                       # Core power per rank (mW)
system.mem_ctrls2.bytes_read::ruby.dir_cntrl2     13861824                       # Number of bytes read from this memory
system.mem_ctrls2.bytes_read::total          13861824                       # Number of bytes read from this memory
system.mem_ctrls2.bytes_written::ruby.dir_cntrl2      3843648                       # Number of bytes written to this memory
system.mem_ctrls2.bytes_written::total        3843648                       # Number of bytes written to this memory
system.mem_ctrls2.num_reads::ruby.dir_cntrl2       216591                       # Number of read requests responded to by this memory
system.mem_ctrls2.num_reads::total             216591                       # Number of read requests responded to by this memory
system.mem_ctrls2.num_writes::ruby.dir_cntrl2        60057                       # Number of write requests responded to by this memory
system.mem_ctrls2.num_writes::total             60057                       # Number of write requests responded to by this memory
system.mem_ctrls2.bw_read::ruby.dir_cntrl2    202586513                       # Total read bandwidth from this memory (bytes/s)
system.mem_ctrls2.bw_read::total            202586513                       # Total read bandwidth from this memory (bytes/s)
system.mem_ctrls2.bw_write::ruby.dir_cntrl2     56173794                       # Write bandwidth from this memory (bytes/s)
system.mem_ctrls2.bw_write::total            56173794                       # Write bandwidth from this memory (bytes/s)
system.mem_ctrls2.bw_total::ruby.dir_cntrl2    258760306                       # Total bandwidth to/from this memory (bytes/s)
system.mem_ctrls2.bw_total::total           258760306                       # Total bandwidth to/from this memory (bytes/s)
system.mem_ctrls2.readReqs                     216591                       # Number of read requests accepted
system.mem_ctrls2.writeReqs                     60057                       # Number of write requests accepted
system.mem_ctrls2.readBursts                   216591                       # Number of DRAM read bursts, including those serviced by the write queue
system.mem_ctrls2.writeBursts                   60057                       # Number of DRAM write bursts, including those merged in the write queue
system.mem_ctrls2.bytesReadDRAM              13860992                       # Total number of bytes read from DRAM
system.mem_ctrls2.bytesReadWrQ                    832                       # Total number of bytes read from write queue
system.mem_ctrls2.bytesWritten                3843648                       # Total number of bytes written to DRAM
system.mem_ctrls2.bytesReadSys               13861824                       # Total read bytes from the system interface side
system.mem_ctrls2.bytesWrittenSys             3843648                       # Total written bytes from the system interface side
system.mem_ctrls2.servicedByWrQ                    13                       # Number of DRAM read bursts serviced by the write queue
system.mem_ctrls2.mergedWrBursts                    0                       # Number of DRAM write bursts merged with an existing one
system.mem_ctrls2.neitherReadNorWriteReqs            0                       # Number of requests that are neither read nor write
system.mem_ctrls2.perBankRdBursts::0            13292                       # Per bank write bursts
system.mem_ctrls2.perBankRdBursts::1            13855                       # Per bank write bursts
system.mem_ctrls2.perBankRdBursts::2            13544                       # Per bank write bursts
system.mem_ctrls2.perBankRdBursts::3            13919                       # Per bank write bursts
system.mem_ctrls2.perBankRdBursts::4            13556                       # Per bank write bursts
system.mem_ctrls2.perBankRdBursts::5            14098                       # Per bank write bursts
system.mem_ctrls2.perBankRdBursts::6            13503                       # Per bank write bursts
system.mem_ctrls2.perBankRdBursts::7            13521                       # Per bank write bursts
system.mem_ctrls2.perBankRdBursts::8            13418                       # Per bank write bursts
system.mem_ctrls2.perBankRdBursts::9            13719                       # Per bank write bursts
system.mem_ctrls2.perBankRdBursts::10           13434                       # Per bank write bursts
system.mem_ctrls2.perBankRdBursts::11           13705                       # Per bank write bursts
system.mem_ctrls2.perBankRdBursts::12           13205                       # Per bank write bursts
system.mem_ctrls2.perBankRdBursts::13           13074                       # Per bank write bursts
system.mem_ctrls2.perBankRdBursts::14           13303                       # Per bank write bursts
system.mem_ctrls2.perBankRdBursts::15           13432                       # Per bank write bursts
system.mem_ctrls2.perBankWrBursts::0             3685                       # Per bank write bursts
system.mem_ctrls2.perBankWrBursts::1             3779                       # Per bank write bursts
system.mem_ctrls2.perBankWrBursts::2             3771                       # Per bank write bursts
system.mem_ctrls2.perBankWrBursts::3             3992                       # Per bank write bursts
system.mem_ctrls2.perBankWrBursts::4             3767                       # Per bank write bursts
system.mem_ctrls2.perBankWrBursts::5             3918                       # Per bank write bursts
system.mem_ctrls2.perBankWrBursts::6             3813                       # Per bank write bursts
system.mem_ctrls2.perBankWrBursts::7             3799                       # Per bank write bursts
system.mem_ctrls2.perBankWrBursts::8             3665                       # Per bank write bursts
system.mem_ctrls2.perBankWrBursts::9             3904                       # Per bank write bursts
system.mem_ctrls2.perBankWrBursts::10            3665                       # Per bank write bursts
system.mem_ctrls2.perBankWrBursts::11            3614                       # Per bank write bursts
system.mem_ctrls2.perBankWrBursts::12            3575                       # Per bank write bursts
system.mem_ctrls2.perBankWrBursts::13            3592                       # Per bank write bursts
system.mem_ctrls2.perBankWrBursts::14            3802                       # Per bank write bursts
system.mem_ctrls2.perBankWrBursts::15            3716                       # Per bank write bursts
system.mem_ctrls2.numRdRetry                       34                       # Number of times read queue was full causing retry
system.mem_ctrls2.numWrRetry                       79                       # Number of times write queue was full causing retry
system.mem_ctrls2.totGap                  68423502000                       # Total gap between requests
system.mem_ctrls2.readPktSize::0                    0                       # Read request sizes (log2)
system.mem_ctrls2.readPktSize::1                    0                       # Read request sizes (log2)
system.mem_ctrls2.readPktSize::2                    0                       # Read request sizes (log2)
system.mem_ctrls2.readPktSize::3                    0                       # Read request sizes (log2)
system.mem_ctrls2.readPktSize::4                    0                       # Read request sizes (log2)
system.mem_ctrls2.readPktSize::5                    0                       # Read request sizes (log2)
system.mem_ctrls2.readPktSize::6               216591                       # Read request sizes (log2)
system.mem_ctrls2.writePktSize::0                   0                       # Write request sizes (log2)
system.mem_ctrls2.writePktSize::1                   0                       # Write request sizes (log2)
system.mem_ctrls2.writePktSize::2                   0                       # Write request sizes (log2)
system.mem_ctrls2.writePktSize::3                   0                       # Write request sizes (log2)
system.mem_ctrls2.writePktSize::4                   0                       # Write request sizes (log2)
system.mem_ctrls2.writePktSize::5                   0                       # Write request sizes (log2)
system.mem_ctrls2.writePktSize::6               60057                       # Write request sizes (log2)
system.mem_ctrls2.rdQLenPdf::0                 192046                       # What read queue length does an incoming req see
system.mem_ctrls2.rdQLenPdf::1                  22181                       # What read queue length does an incoming req see
system.mem_ctrls2.rdQLenPdf::2                   1530                       # What read queue length does an incoming req see
system.mem_ctrls2.rdQLenPdf::3                    116                       # What read queue length does an incoming req see
system.mem_ctrls2.rdQLenPdf::4                     38                       # What read queue length does an incoming req see
system.mem_ctrls2.rdQLenPdf::5                     36                       # What read queue length does an incoming req see
system.mem_ctrls2.rdQLenPdf::6                     24                       # What read queue length does an incoming req see
system.mem_ctrls2.rdQLenPdf::7                     31                       # What read queue length does an incoming req see
system.mem_ctrls2.rdQLenPdf::8                     23                       # What read queue length does an incoming req see
system.mem_ctrls2.rdQLenPdf::9                     23                       # What read queue length does an incoming req see
system.mem_ctrls2.rdQLenPdf::10                    32                       # What read queue length does an incoming req see
system.mem_ctrls2.rdQLenPdf::11                    32                       # What read queue length does an incoming req see
system.mem_ctrls2.rdQLenPdf::12                    33                       # What read queue length does an incoming req see
system.mem_ctrls2.rdQLenPdf::13                    33                       # What read queue length does an incoming req see
system.mem_ctrls2.rdQLenPdf::14                    41                       # What read queue length does an incoming req see
system.mem_ctrls2.rdQLenPdf::15                    40                       # What read queue length does an incoming req see
system.mem_ctrls2.rdQLenPdf::16                    39                       # What read queue length does an incoming req see
system.mem_ctrls2.rdQLenPdf::17                    28                       # What read queue length does an incoming req see
system.mem_ctrls2.rdQLenPdf::18                    33                       # What read queue length does an incoming req see
system.mem_ctrls2.rdQLenPdf::19                    15                       # What read queue length does an incoming req see
system.mem_ctrls2.rdQLenPdf::20                    18                       # What read queue length does an incoming req see
system.mem_ctrls2.rdQLenPdf::21                    15                       # What read queue length does an incoming req see
system.mem_ctrls2.rdQLenPdf::22                    12                       # What read queue length does an incoming req see
system.mem_ctrls2.rdQLenPdf::23                    15                       # What read queue length does an incoming req see
system.mem_ctrls2.rdQLenPdf::24                    13                       # What read queue length does an incoming req see
system.mem_ctrls2.rdQLenPdf::25                    16                       # What read queue length does an incoming req see
system.mem_ctrls2.rdQLenPdf::26                    15                       # What read queue length does an incoming req see
system.mem_ctrls2.rdQLenPdf::27                    13                       # What read queue length does an incoming req see
system.mem_ctrls2.rdQLenPdf::28                    14                       # What read queue length does an incoming req see
system.mem_ctrls2.rdQLenPdf::29                    14                       # What read queue length does an incoming req see
system.mem_ctrls2.rdQLenPdf::30                    14                       # What read queue length does an incoming req see
system.mem_ctrls2.rdQLenPdf::31                    45                       # What read queue length does an incoming req see
system.mem_ctrls2.wrQLenPdf::0                  11872                       # What write queue length does an incoming req see
system.mem_ctrls2.wrQLenPdf::1                  11968                       # What write queue length does an incoming req see
system.mem_ctrls2.wrQLenPdf::2                  11960                       # What write queue length does an incoming req see
system.mem_ctrls2.wrQLenPdf::3                  11951                       # What write queue length does an incoming req see
system.mem_ctrls2.wrQLenPdf::4                  11942                       # What write queue length does an incoming req see
system.mem_ctrls2.wrQLenPdf::5                    134                       # What write queue length does an incoming req see
system.mem_ctrls2.wrQLenPdf::6                     96                       # What write queue length does an incoming req see
system.mem_ctrls2.wrQLenPdf::7                    134                       # What write queue length does an incoming req see
system.mem_ctrls2.bytesPerActivate::samples        64111                       # Bytes accessed per row activation
system.mem_ctrls2.bytesPerActivate::mean   276.136076                       # Bytes accessed per row activation
system.mem_ctrls2.bytesPerActivate::gmean   182.350582                       # Bytes accessed per row activation
system.mem_ctrls2.bytesPerActivate::stdev   276.141741                       # Bytes accessed per row activation
system.mem_ctrls2.bytesPerActivate::0-127        19102     29.80%     29.80% # Bytes accessed per row activation
system.mem_ctrls2.bytesPerActivate::128-255        17628     27.50%     57.29% # Bytes accessed per row activation
system.mem_ctrls2.bytesPerActivate::256-383        14778     23.05%     80.34% # Bytes accessed per row activation
system.mem_ctrls2.bytesPerActivate::384-511         2658      4.15%     84.49% # Bytes accessed per row activation
system.mem_ctrls2.bytesPerActivate::512-639         1972      3.08%     87.56% # Bytes accessed per row activation
system.mem_ctrls2.bytesPerActivate::640-767         1275      1.99%     89.55% # Bytes accessed per row activation
system.mem_ctrls2.bytesPerActivate::768-895         1064      1.66%     91.21% # Bytes accessed per row activation
system.mem_ctrls2.bytesPerActivate::896-1023          933      1.46%     92.67% # Bytes accessed per row activation
system.mem_ctrls2.bytesPerActivate::1024-1151         4701      7.33%    100.00% # Bytes accessed per row activation
system.mem_ctrls2.bytesPerActivate::total        64111                       # Bytes accessed per row activation
system.mem_ctrls2.rdPerTurnAround::samples        11887                       # Reads before turning the bus around for writes
system.mem_ctrls2.rdPerTurnAround::mean     18.219231                       # Reads before turning the bus around for writes
system.mem_ctrls2.rdPerTurnAround::stdev    82.098630                       # Reads before turning the bus around for writes
system.mem_ctrls2.rdPerTurnAround::0-127        11537     97.06%     97.06% # Reads before turning the bus around for writes
system.mem_ctrls2.rdPerTurnAround::128-255          154      1.30%     98.35% # Reads before turning the bus around for writes
system.mem_ctrls2.rdPerTurnAround::256-383           82      0.69%     99.04% # Reads before turning the bus around for writes
system.mem_ctrls2.rdPerTurnAround::384-511           32      0.27%     99.31% # Reads before turning the bus around for writes
system.mem_ctrls2.rdPerTurnAround::512-639           49      0.41%     99.72% # Reads before turning the bus around for writes
system.mem_ctrls2.rdPerTurnAround::640-767           11      0.09%     99.81% # Reads before turning the bus around for writes
system.mem_ctrls2.rdPerTurnAround::768-895            4      0.03%     99.85% # Reads before turning the bus around for writes
system.mem_ctrls2.rdPerTurnAround::896-1023            5      0.04%     99.89% # Reads before turning the bus around for writes
system.mem_ctrls2.rdPerTurnAround::1024-1151            5      0.04%     99.93% # Reads before turning the bus around for writes
system.mem_ctrls2.rdPerTurnAround::1152-1279            2      0.02%     99.95% # Reads before turning the bus around for writes
system.mem_ctrls2.rdPerTurnAround::1280-1407            1      0.01%     99.96% # Reads before turning the bus around for writes
system.mem_ctrls2.rdPerTurnAround::1536-1663            2      0.02%     99.97% # Reads before turning the bus around for writes
system.mem_ctrls2.rdPerTurnAround::2048-2175            2      0.02%     99.99% # Reads before turning the bus around for writes
system.mem_ctrls2.rdPerTurnAround::2816-2943            1      0.01%    100.00% # Reads before turning the bus around for writes
system.mem_ctrls2.rdPerTurnAround::total        11887                       # Reads before turning the bus around for writes
system.mem_ctrls2.wrPerTurnAround::samples        11887                       # Writes before turning the bus around for reads
system.mem_ctrls2.wrPerTurnAround::mean      5.052326                       # Writes before turning the bus around for reads
system.mem_ctrls2.wrPerTurnAround::gmean     5.037593                       # Writes before turning the bus around for reads
system.mem_ctrls2.wrPerTurnAround::stdev     0.539493                       # Writes before turning the bus around for reads
system.mem_ctrls2.wrPerTurnAround::4-7          11828     99.50%     99.50% # Writes before turning the bus around for reads
system.mem_ctrls2.wrPerTurnAround::8-11            33      0.28%     99.78% # Writes before turning the bus around for reads
system.mem_ctrls2.wrPerTurnAround::12-15            9      0.08%     99.86% # Writes before turning the bus around for reads
system.mem_ctrls2.wrPerTurnAround::16-19           17      0.14%    100.00% # Writes before turning the bus around for reads
system.mem_ctrls2.wrPerTurnAround::total        11887                       # Writes before turning the bus around for reads
system.mem_ctrls2.totQLat                  1820735932                       # Total ticks spent queuing
system.mem_ctrls2.totMemAccLat             5881573432                       # Total ticks spent from burst creation until serviced by the DRAM
system.mem_ctrls2.totBusLat                1082890000                       # Total ticks spent in databus transfers
system.mem_ctrls2.avgQLat                     8406.84                       # Average queueing delay per DRAM burst
system.mem_ctrls2.avgBusLat                   5000.00                       # Average bus latency per DRAM burst
system.mem_ctrls2.avgMemAccLat               27156.84                       # Average memory access latency per DRAM burst
system.mem_ctrls2.avgRdBW                      202.57                       # Average DRAM read bandwidth in MiByte/s
system.mem_ctrls2.avgWrBW                       56.17                       # Average achieved write bandwidth in MiByte/s
system.mem_ctrls2.avgRdBWSys                   202.59                       # Average system read bandwidth in MiByte/s
system.mem_ctrls2.avgWrBWSys                    56.17                       # Average system write bandwidth in MiByte/s
system.mem_ctrls2.peakBW                     12800.00                       # Theoretical peak bandwidth in MiByte/s
system.mem_ctrls2.busUtil                        2.02                       # Data bus utilization in percentage
system.mem_ctrls2.busUtilRead                    1.58                       # Data bus utilization in percentage for reads
system.mem_ctrls2.busUtilWrite                   0.44                       # Data bus utilization in percentage for writes
system.mem_ctrls2.avgRdQLen                      1.06                       # Average read queue length when enqueuing
system.mem_ctrls2.avgWrQLen                      3.02                       # Average write queue length when enqueuing
system.mem_ctrls2.readRowHits                  172282                       # Number of row buffer hits during reads
system.mem_ctrls2.writeRowHits                  40232                       # Number of row buffer hits during writes
system.mem_ctrls2.readRowHitRate                79.55                       # Row buffer hit rate for reads
system.mem_ctrls2.writeRowHitRate               66.99                       # Row buffer hit rate for writes
system.mem_ctrls2.avgGap                    247330.55                       # Average gap between requests
system.mem_ctrls2.pageHitRate                   76.82                       # Row buffer hit rate, read and write combined
system.mem_ctrls2.memoryStateTime::IDLE   11232925750                       # Time in different power states
system.mem_ctrls2.memoryStateTime::REF     2284620000                       # Time in different power states
system.mem_ctrls2.memoryStateTime::PRE_PDN            0                       # Time in different power states
system.mem_ctrls2.memoryStateTime::ACT    54901342250                       # Time in different power states
system.mem_ctrls2.memoryStateTime::ACT_PDN            0                       # Time in different power states
system.mem_ctrls2.actEnergy::0              248905440                       # Energy for activate commands per rank (pJ)
system.mem_ctrls2.actEnergy::1              235758600                       # Energy for activate commands per rank (pJ)
system.mem_ctrls2.preEnergy::0              135811500                       # Energy for precharge commands per rank (pJ)
system.mem_ctrls2.preEnergy::1              128638125                       # Energy for precharge commands per rank (pJ)
system.mem_ctrls2.readEnergy::0             852352800                       # Energy for read commands per rank (pJ)
system.mem_ctrls2.readEnergy::1             836823000                       # Energy for read commands per rank (pJ)
system.mem_ctrls2.writeEnergy::0            197763120                       # Energy for write commands per rank (pJ)
system.mem_ctrls2.writeEnergy::1            191373840                       # Energy for write commands per rank (pJ)
system.mem_ctrls2.refreshEnergy::0         4468716720                       # Energy for refresh commands per rank (pJ)
system.mem_ctrls2.refreshEnergy::1         4468716720                       # Energy for refresh commands per rank (pJ)
system.mem_ctrls2.actBackEnergy::0        30929348835                       # Energy for active background per rank (pJ)
system.mem_ctrls2.actBackEnergy::1        30203035740                       # Energy for active background per rank (pJ)
system.mem_ctrls2.preBackEnergy::0        13919815500                       # Energy for precharge background per rank (pJ)
system.mem_ctrls2.preBackEnergy::1        14556932250                       # Energy for precharge background per rank (pJ)
system.mem_ctrls2.totalEnergy::0          50752713915                       # Total energy per rank (pJ)
system.mem_ctrls2.totalEnergy::1          50621278275                       # Total energy per rank (pJ)
system.mem_ctrls2.averagePower::0          741.803110                       # Core power per rank (mW)
system.mem_ctrls2.averagePower::1          739.882043                       # Core power per rank (mW)
system.mem_ctrls3.bytes_read::ruby.dir_cntrl3     13846912                       # Number of bytes read from this memory
system.mem_ctrls3.bytes_read::total          13846912                       # Number of bytes read from this memory
system.mem_ctrls3.bytes_written::ruby.dir_cntrl3      3839936                       # Number of bytes written to this memory
system.mem_ctrls3.bytes_written::total        3839936                       # Number of bytes written to this memory
system.mem_ctrls3.num_reads::ruby.dir_cntrl3       216358                       # Number of read requests responded to by this memory
system.mem_ctrls3.num_reads::total             216358                       # Number of read requests responded to by this memory
system.mem_ctrls3.num_writes::ruby.dir_cntrl3        59999                       # Number of write requests responded to by this memory
system.mem_ctrls3.num_writes::total             59999                       # Number of write requests responded to by this memory
system.mem_ctrls3.bw_read::ruby.dir_cntrl3    202368578                       # Total read bandwidth from this memory (bytes/s)
system.mem_ctrls3.bw_read::total            202368578                       # Total read bandwidth from this memory (bytes/s)
system.mem_ctrls3.bw_write::ruby.dir_cntrl3     56119544                       # Write bandwidth from this memory (bytes/s)
system.mem_ctrls3.bw_write::total            56119544                       # Write bandwidth from this memory (bytes/s)
system.mem_ctrls3.bw_total::ruby.dir_cntrl3    258488122                       # Total bandwidth to/from this memory (bytes/s)
system.mem_ctrls3.bw_total::total           258488122                       # Total bandwidth to/from this memory (bytes/s)
system.mem_ctrls3.readReqs                     216359                       # Number of read requests accepted
system.mem_ctrls3.writeReqs                     59999                       # Number of write requests accepted
system.mem_ctrls3.readBursts                   216359                       # Number of DRAM read bursts, including those serviced by the write queue
system.mem_ctrls3.writeBursts                   59999                       # Number of DRAM write bursts, including those merged in the write queue
system.mem_ctrls3.bytesReadDRAM              13846272                       # Total number of bytes read from DRAM
system.mem_ctrls3.bytesReadWrQ                    704                       # Total number of bytes read from write queue
system.mem_ctrls3.bytesWritten                3839744                       # Total number of bytes written to DRAM
system.mem_ctrls3.bytesReadSys               13846976                       # Total read bytes from the system interface side
system.mem_ctrls3.bytesWrittenSys             3839936                       # Total written bytes from the system interface side
system.mem_ctrls3.servicedByWrQ                    11                       # Number of DRAM read bursts serviced by the write queue
system.mem_ctrls3.mergedWrBursts                    0                       # Number of DRAM write bursts merged with an existing one
system.mem_ctrls3.neitherReadNorWriteReqs            0                       # Number of requests that are neither read nor write
system.mem_ctrls3.perBankRdBursts::0            13273                       # Per bank write bursts
system.mem_ctrls3.perBankRdBursts::1            13850                       # Per bank write bursts
system.mem_ctrls3.perBankRdBursts::2            13481                       # Per bank write bursts
system.mem_ctrls3.perBankRdBursts::3            13898                       # Per bank write bursts
system.mem_ctrls3.perBankRdBursts::4            13497                       # Per bank write bursts
system.mem_ctrls3.perBankRdBursts::5            14079                       # Per bank write bursts
system.mem_ctrls3.perBankRdBursts::6            13525                       # Per bank write bursts
system.mem_ctrls3.perBankRdBursts::7            13511                       # Per bank write bursts
system.mem_ctrls3.perBankRdBursts::8            13419                       # Per bank write bursts
system.mem_ctrls3.perBankRdBursts::9            13706                       # Per bank write bursts
system.mem_ctrls3.perBankRdBursts::10           13453                       # Per bank write bursts
system.mem_ctrls3.perBankRdBursts::11           13666                       # Per bank write bursts
system.mem_ctrls3.perBankRdBursts::12           13200                       # Per bank write bursts
system.mem_ctrls3.perBankRdBursts::13           13070                       # Per bank write bursts
system.mem_ctrls3.perBankRdBursts::14           13317                       # Per bank write bursts
system.mem_ctrls3.perBankRdBursts::15           13403                       # Per bank write bursts
system.mem_ctrls3.perBankWrBursts::0             3692                       # Per bank write bursts
system.mem_ctrls3.perBankWrBursts::1             3769                       # Per bank write bursts
system.mem_ctrls3.perBankWrBursts::2             3758                       # Per bank write bursts
system.mem_ctrls3.perBankWrBursts::3             3975                       # Per bank write bursts
system.mem_ctrls3.perBankWrBursts::4             3764                       # Per bank write bursts
system.mem_ctrls3.perBankWrBursts::5             3911                       # Per bank write bursts
system.mem_ctrls3.perBankWrBursts::6             3810                       # Per bank write bursts
system.mem_ctrls3.perBankWrBursts::7             3783                       # Per bank write bursts
system.mem_ctrls3.perBankWrBursts::8             3662                       # Per bank write bursts
system.mem_ctrls3.perBankWrBursts::9             3909                       # Per bank write bursts
system.mem_ctrls3.perBankWrBursts::10            3664                       # Per bank write bursts
system.mem_ctrls3.perBankWrBursts::11            3628                       # Per bank write bursts
system.mem_ctrls3.perBankWrBursts::12            3573                       # Per bank write bursts
system.mem_ctrls3.perBankWrBursts::13            3596                       # Per bank write bursts
system.mem_ctrls3.perBankWrBursts::14            3798                       # Per bank write bursts
system.mem_ctrls3.perBankWrBursts::15            3704                       # Per bank write bursts
system.mem_ctrls3.numRdRetry                        9                       # Number of times read queue was full causing retry
system.mem_ctrls3.numWrRetry                       86                       # Number of times write queue was full causing retry
system.mem_ctrls3.totGap                  68423474000                       # Total gap between requests
system.mem_ctrls3.readPktSize::0                    0                       # Read request sizes (log2)
system.mem_ctrls3.readPktSize::1                    0                       # Read request sizes (log2)
system.mem_ctrls3.readPktSize::2                    0                       # Read request sizes (log2)
system.mem_ctrls3.readPktSize::3                    0                       # Read request sizes (log2)
[...]
system.ruby.L2Cache_Controller.IS.Mem_Data::total        13931                      
system.ruby.L2Cache_Controller.IM.Mem_Data |        6019      3.16%      3.16% |        5937      3.12%      6.28% |        5946      3.12%      9.41% |        5953      3.13%     12.54% |        5949      3.13%     15.66% |        5944      3.12%     18.79% |        5941      3.12%     21.91% |        5928      3.12%     25.02% |        5954      3.13%     28.15% |        5944      3.12%     31.28% |        5929      3.12%     34.39% |        5950      3.13%     37.52% |        5942      3.12%     40.64% |        5934      3.12%     43.76% |        5932      3.12%     46.88% |        5932      3.12%     50.00% |        5946      3.12%     53.12% |        5948      3.13%     56.25% |        5949      3.13%     59.37% |        5937      3.12%     62.49% |        5943      3.12%     65.62% |        5952      3.13%     68.75% |        5933      3.12%     71.86% |        5942      3.12%     74.99% |        5948      3.13%     78.11% |        5946      3.12%     81.24% |        5958      3.13%     84.37% |        5947      3.13%     87.49% |        5944      3.12%     90.62% |        5952      3.13%     93.75% |        5963      3.13%     96.88% |        5936      3.12%    100.00%
system.ruby.L2Cache_Controller.IM.Mem_Data::total       190278                      
system.ruby.L2Cache_Controller.SS_MB.Exclusive_Unblock |         252     83.72%     83.72% |           6      1.99%     85.71% |           3      1.00%     86.71% |           6      1.99%     88.70% |           0      0.00%     88.70% |           1      0.33%     89.04% |           1      0.33%     89.37% |           0      0.00%     89.37% |           0      0.00%     89.37% |           1      0.33%     89.70% |           0      0.00%     89.70% |           0      0.00%     89.70% |           5      1.66%     91.36% |           0      0.00%     91.36% |           2      0.66%     92.03% |           1      0.33%     92.36% |           0      0.00%     92.36% |           0      0.00%     92.36% |          10      3.32%     95.68% |           2      0.66%     96.35% |           0      0.00%     96.35% |           0      0.00%     96.35% |           0      0.00%     96.35% |           0      0.00%     96.35% |           1      0.33%     96.68% |           0      0.00%     96.68% |           2      0.66%     97.34% |           1      0.33%     97.67% |           4      1.33%     99.00% |           1      0.33%     99.34% |           1      0.33%     99.67% |           1      0.33%    100.00%
system.ruby.L2Cache_Controller.SS_MB.Exclusive_Unblock::total          301                      
system.ruby.L2Cache_Controller.MT_MB.L1_GETS |           4    100.00%    100.00% |           0      0.00%    100.00% |           0      0.00%    100.00% |           0      0.00%    100.00% |           0      0.00%    100.00% |           0      0.00%    100.00% |           0      0.00%    100.00% |           0      0.00%    100.00% |           0      0.00%    100.00% |           0      0.00%    100.00% |           0      0.00%    100.00% |           0      0.00%    100.00% |           0      0.00%    100.00% |           0      0.00%    100.00% |           0      0.00%    100.00% |           0      0.00%    100.00% |           0      0.00%    100.00% |           0      0.00%    100.00% |           0      0.00%    100.00% |           0      0.00%    100.00% |           0      0.00%    100.00% |           0      0.00%    100.00% |           0      0.00%    100.00% |           0      0.00%    100.00% |           0      0.00%    100.00% |           0      0.00%    100.00% |           0      0.00%    100.00% |           0      0.00%    100.00% |           0      0.00%    100.00% |           0      0.00%    100.00% |           0      0.00%    100.00% |           0      0.00%    100.00%
system.ruby.L2Cache_Controller.MT_MB.L1_GETS::total            4                      
system.ruby.L2Cache_Controller.MT_MB.L1_GETX |           1    100.00%    100.00% |           0      0.00%    100.00% |           0      0.00%    100.00% |           0      0.00%    100.00% |           0      0.00%    100.00% |           0      0.00%    100.00% |           0      0.00%    100.00% |           0      0.00%    100.00% |           0      0.00%    100.00% |           0      0.00%    100.00% |           0      0.00%    100.00% |           0      0.00%    100.00% |           0      0.00%    100.00% |           0      0.00%    100.00% |           0      0.00%    100.00% |           0      0.00%    100.00% |           0      0.00%    100.00% |           0      0.00%    100.00% |           0      0.00%    100.00% |           0      0.00%    100.00% |           0      0.00%    100.00% |           0      0.00%    100.00% |           0      0.00%    100.00% |           0      0.00%    100.00% |           0      0.00%    100.00% |           0      0.00%    100.00% |           0      0.00%    100.00% |           0      0.00%    100.00% |           0      0.00%    100.00% |           0      0.00%    100.00% |           0      0.00%    100.00% |           0      0.00%    100.00%
system.ruby.L2Cache_Controller.MT_MB.L1_GETX::total            1                      
system.ruby.L2Cache_Controller.MT_MB.Exclusive_Unblock |       77564      7.07%      7.07% |       33428      3.05%     10.12% |       32742      2.99%     13.11% |       32901      3.00%     16.11% |       33151      3.02%     19.14% |       32086      2.93%     22.06% |       32002      2.92%     24.98% |       31718      2.89%     27.87% |       34007      3.10%     30.98% |       32399      2.96%     33.93% |       34351      3.13%     37.06% |       33168      3.03%     40.09% |       32735      2.99%     43.08% |       31784      2.90%     45.98% |       31819      2.90%     48.88% |       31707      2.89%     51.77% |       34313      3.13%     54.90% |       32155      2.93%     57.83% |       33009      3.01%     60.84% |       32579      2.97%     63.81% |       33074      3.02%     66.83% |       32514      2.97%     69.80% |       33056      3.02%     72.81% |       32055      2.92%     75.74% |       33692      3.07%     78.81% |       32390      2.95%     81.76% |       32889      3.00%     84.76% |       31863      2.91%     87.67% |       33210      3.03%     90.70% |       31949      2.91%     93.61% |       34330      3.13%     96.74% |       35686      3.26%    100.00%
system.ruby.L2Cache_Controller.MT_MB.Exclusive_Unblock::total      1096326                      
system.ruby.L2Cache_Controller.MT_IIB.L1_GETS |           0      0.00%      0.00% |           2     50.00%     50.00% |           1     25.00%     75.00% |           0      0.00%     75.00% |           0      0.00%     75.00% |           0      0.00%     75.00% |           0      0.00%     75.00% |           0      0.00%     75.00% |           0      0.00%     75.00% |           0      0.00%     75.00% |           0      0.00%     75.00% |           0      0.00%     75.00% |           0      0.00%     75.00% |           0      0.00%     75.00% |           0      0.00%     75.00% |           0      0.00%     75.00% |           0      0.00%     75.00% |           0      0.00%     75.00% |           1     25.00%    100.00% |           0      0.00%    100.00% |           0      0.00%    100.00% |           0      0.00%    100.00% |           0      0.00%    100.00% |           0      0.00%    100.00% |           0      0.00%    100.00% |           0      0.00%    100.00% |           0      0.00%    100.00% |           0      0.00%    100.00% |           0      0.00%    100.00% |           0      0.00%    100.00% |           0      0.00%    100.00% |           0      0.00%    100.00%
system.ruby.L2Cache_Controller.MT_IIB.L1_GETS::total            4                      
system.ruby.L2Cache_Controller.MT_IIB.WB_Data |         162     14.70%     14.70% |          32      2.90%     17.60% |          29      2.63%     20.24% |          30      2.72%     22.96% |          30      2.72%     25.68% |          30      2.72%     28.40% |          30      2.72%     31.13% |          30      2.72%     33.85% |          30      2.72%     36.57% |          30      2.72%     39.29% |          30      2.72%     42.01% |          30      2.72%     44.74% |          34      3.09%     47.82% |          30      2.72%     50.54% |          30      2.72%     53.27% |          30      2.72%     55.99% |          30      2.72%     58.71% |          30      2.72%     61.43% |          31      2.81%     64.25% |          31      2.81%     67.06% |          30      2.72%     69.78% |          30      2.72%     72.50% |          32      2.90%     75.41% |          30      2.72%     78.13% |          30      2.72%     80.85% |          30      2.72%     83.58% |          30      2.72%     86.30% |          30      2.72%     89.02% |          31      2.81%     91.83% |          30      2.72%     94.56% |          30      2.72%     97.28% |          30      2.72%    100.00%
system.ruby.L2Cache_Controller.MT_IIB.WB_Data::total         1102                      
system.ruby.L2Cache_Controller.MT_IIB.WB_Data_clean |         745     97.51%     97.51% |           4      0.52%     98.04% |           3      0.39%     98.43% |           2      0.26%     98.69% |           0      0.00%     98.69% |           0      0.00%     98.69% |           0      0.00%     98.69% |           0      0.00%     98.69% |           0      0.00%     98.69% |           0      0.00%     98.69% |           0      0.00%     98.69% |           0      0.00%     98.69% |           0      0.00%     98.69% |           0      0.00%     98.69% |           1      0.13%     98.82% |           0      0.00%     98.82% |           1      0.13%     98.95% |           3      0.39%     99.35% |           3      0.39%     99.74% |           2      0.26%    100.00% |           0      0.00%    100.00% |           0      0.00%    100.00% |           0      0.00%    100.00% |           0      0.00%    100.00% |           0      0.00%    100.00% |           0      0.00%    100.00% |           0      0.00%    100.00% |           0      0.00%    100.00% |           0      0.00%    100.00% |           0      0.00%    100.00% |           0      0.00%    100.00% |           0      0.00%    100.00%
system.ruby.L2Cache_Controller.MT_IIB.WB_Data_clean::total          764                      
system.ruby.L2Cache_Controller.MT_IIB.Unblock |           0      0.00%      0.00% |           0      0.00%      0.00% |           1     33.33%     33.33% |           0      0.00%     33.33% |           0      0.00%     33.33% |           0      0.00%     33.33% |           0      0.00%     33.33% |           0      0.00%     33.33% |           0      0.00%     33.33% |           0      0.00%     33.33% |           0      0.00%     33.33% |           0      0.00%     33.33% |           0      0.00%     33.33% |           0      0.00%     33.33% |           0      0.00%     33.33% |           0      0.00%     33.33% |           0      0.00%     33.33% |           0      0.00%     33.33% |           0      0.00%     33.33% |           0      0.00%     33.33% |           0      0.00%     33.33% |           0      0.00%     33.33% |           0      0.00%     33.33% |           0      0.00%     33.33% |           0      0.00%     33.33% |           1     33.33%     66.67% |           0      0.00%     66.67% |           0      0.00%     66.67% |           1     33.33%    100.00% |           0      0.00%    100.00% |           0      0.00%    100.00% |           0      0.00%    100.00%
system.ruby.L2Cache_Controller.MT_IIB.Unblock::total            3                      
system.ruby.L2Cache_Controller.MT_IB.WB_Data |           0      0.00%      0.00% |           0      0.00%      0.00% |           1     33.33%     33.33% |           0      0.00%     33.33% |           0      0.00%     33.33% |           0      0.00%     33.33% |           0      0.00%     33.33% |           0      0.00%     33.33% |           0      0.00%     33.33% |           0      0.00%     33.33% |           0      0.00%     33.33% |           0      0.00%     33.33% |           0      0.00%     33.33% |           0      0.00%     33.33% |           0      0.00%     33.33% |           0      0.00%     33.33% |           0      0.00%     33.33% |           0      0.00%     33.33% |           0      0.00%     33.33% |           0      0.00%     33.33% |           0      0.00%     33.33% |           0      0.00%     33.33% |           0      0.00%     33.33% |           0      0.00%     33.33% |           0      0.00%     33.33% |           1     33.33%     66.67% |           0      0.00%     66.67% |           0      0.00%     66.67% |           1     33.33%    100.00% |           0      0.00%    100.00% |           0      0.00%    100.00% |           0      0.00%    100.00%
system.ruby.L2Cache_Controller.MT_IB.WB_Data::total            3                      
system.ruby.L2Cache_Controller.MT_SB.Unblock |         907     48.61%     48.61% |          36      1.93%     50.54% |          32      1.71%     52.25% |          32      1.71%     53.97% |          30      1.61%     55.57% |          30      1.61%     57.18% |          30      1.61%     58.79% |          30      1.61%     60.40% |          30      1.61%     62.00% |          30      1.61%     63.61% |          30      1.61%     65.22% |          30      1.61%     66.83% |          34      1.82%     68.65% |          30      1.61%     70.26% |          31      1.66%     71.92% |          30      1.61%     73.53% |          31      1.66%     75.19% |          33      1.77%     76.96% |          34      1.82%     78.78% |          33      1.77%     80.55% |          30      1.61%     82.15% |          30      1.61%     83.76% |          32      1.71%     85.48% |          30      1.61%     87.08% |          30      1.61%     88.69% |          30      1.61%     90.30% |          30      1.61%     91.91% |          30      1.61%     93.52% |          31      1.66%     95.18% |          30      1.61%     96.78% |          30      1.61%     98.39% |          30      1.61%    100.00%
system.ruby.L2Cache_Controller.MT_SB.Unblock::total         1866                      
system.ruby.SimicsNetworkPortInterface_Controller.MessageSend |       76525      4.23%      4.23% |      905025     50.00%     54.23% |      209719     11.59%     65.81% |      207637     11.47%     77.29% |      203316     11.23%     88.52% |      207828     11.48%    100.00% |           0      0.00%    100.00% |           0      0.00%    100.00% |           0      0.00%    100.00% |           0      0.00%    100.00% |           0      0.00%    100.00% |           0      0.00%    100.00% |           0      0.00%    100.00% |           0      0.00%    100.00% |           0      0.00%    100.00% |           0      0.00%    100.00% |           0      0.00%    100.00% |           0      0.00%    100.00% |           0      0.00%    100.00% |           0      0.00%    100.00% |           0      0.00%    100.00% |           0      0.00%    100.00% |           0      0.00%    100.00% |           0      0.00%    100.00% |           0      0.00%    100.00% |           0      0.00%    100.00% |           0      0.00%    100.00% |           0      0.00%    100.00% |           0      0.00%    100.00% |           0      0.00%    100.00% |           0      0.00%    100.00% |           0      0.00%    100.00%
system.ruby.SimicsNetworkPortInterface_Controller.MessageSend::total      1810050                      
system.ruby.SimicsNetworkPortInterface_Controller.MessageRecv |       76525      4.23%      4.23% |      905025     50.00%     54.23% |      209719     11.59%     65.81% |      207637     11.47%     77.29% |      203316     11.23%     88.52% |      207828     11.48%    100.00% |           0      0.00%    100.00% |           0      0.00%    100.00% |           0      0.00%    100.00% |           0      0.00%    100.00% |           0      0.00%    100.00% |           0      0.00%    100.00% |           0      0.00%    100.00% |           0      0.00%    100.00% |           0      0.00%    100.00% |           0      0.00%    100.00% |           0      0.00%    100.00% |           0      0.00%    100.00% |           0      0.00%    100.00% |           0      0.00%    100.00% |           0      0.00%    100.00% |           0      0.00%    100.00% |           0      0.00%    100.00% |           0      0.00%    100.00% |           0      0.00%    100.00% |           0      0.00%    100.00% |           0      0.00%    100.00% |           0      0.00%    100.00% |           0      0.00%    100.00% |           0      0.00%    100.00% |           0      0.00%    100.00% |           0      0.00%    100.00%
system.ruby.SimicsNetworkPortInterface_Controller.MessageRecv::total      1810050                      
system.ruby.SimicsNetworkPortInterface_Controller.A.MessageSend |       76525      4.23%      4.23% |      905025     50.00%     54.23% |      209719     11.59%     65.81% |      207637     11.47%     77.29% |      203316     11.23%     88.52% |      207828     11.48%    100.00% |           0      0.00%    100.00% |           0      0.00%    100.00% |           0      0.00%    100.00% |           0      0.00%    100.00% |           0      0.00%    100.00% |           0      0.00%    100.00% |           0      0.00%    100.00% |           0      0.00%    100.00% |           0      0.00%    100.00% |           0      0.00%    100.00% |           0      0.00%    100.00% |           0      0.00%    100.00% |           0      0.00%    100.00% |           0      0.00%    100.00% |           0      0.00%    100.00% |           0      0.00%    100.00% |           0      0.00%    100.00% |           0      0.00%    100.00% |           0      0.00%    100.00% |           0      0.00%    100.00% |           0      0.00%    100.00% |           0      0.00%    100.00% |           0      0.00%    100.00% |           0      0.00%    100.00% |           0      0.00%    100.00% |           0      0.00%    100.00%
system.ruby.SimicsNetworkPortInterface_Controller.A.MessageSend::total      1810050                      
system.ruby.SimicsNetworkPortInterface_Controller.A.MessageRecv |       76525      4.23%      4.23% |      905025     50.00%     54.23% |      209719     11.59%     65.81% |      207637     11.47%     77.29% |      203316     11.23%     88.52% |      207828     11.48%    100.00% |           0      0.00%    100.00% |           0      0.00%    100.00% |           0      0.00%    100.00% |           0      0.00%    100.00% |           0      0.00%    100.00% |           0      0.00%    100.00% |           0      0.00%    100.00% |           0      0.00%    100.00% |           0      0.00%    100.00% |           0      0.00%    100.00% |           0      0.00%    100.00% |           0      0.00%    100.00% |           0      0.00%    100.00% |           0      0.00%    100.00% |           0      0.00%    100.00% |           0      0.00%    100.00% |           0      0.00%    100.00% |           0      0.00%    100.00% |           0      0.00%    100.00% |           0      0.00%    100.00% |           0      0.00%    100.00% |           0      0.00%    100.00% |           0      0.00%    100.00% |           0      0.00%    100.00% |           0      0.00%    100.00% |           0      0.00%    100.00%
system.ruby.SimicsNetworkPortInterface_Controller.A.MessageRecv::total      1810050                      
system.switch_cpus.kern.inst.arm                    0                       # number of arm instructions executed
system.switch_cpus.kern.inst.quiesce                0                       # number of quiesce instructions executed

---------- End Simulation Statistics   ----------
