
---------- Begin Simulation Statistics ----------
sim_seconds                                  0.056849                       # Number of seconds simulated
sim_ticks                                 56849457500                       # Number of ticks simulated
final_tick                               5233017536000                       # Number of ticks from beginning of simulation (restored from checkpoints and never reset)
sim_freq                                 1000000000000                       # Frequency of simulated ticks
host_inst_rate                                  28458                       # Simulator instruction rate (inst/s)
host_op_rate                                    50457                       # Simulator op (including micro ops) rate (op/s)
host_tick_rate                               71353688                       # Simulator tick rate (ticks/s)
host_mem_usage                                3686368                       # Number of bytes of host memory used
host_seconds                                   796.73                       # Real time elapsed on the host
sim_insts                                    22673468                       # Number of instructions simulated
sim_ops                                      40200851                       # Number of ops (including micro ops) simulated
system.voltage_domain.voltage                       1                       # Voltage in Volts
system.clk_domain.clock                           500                       # Clock period in ticks
system.mem_ctrls0.bytes_read::ruby.dir_cntrl0     12591936                       # Number of bytes read from this memory
system.mem_ctrls0.bytes_read::total          12591936                       # Number of bytes read from this memory
system.mem_ctrls0.bytes_written::ruby.dir_cntrl0      8005056                       # Number of bytes written to this memory
system.mem_ctrls0.bytes_written::total        8005056                       # Number of bytes written to this memory
system.mem_ctrls0.num_reads::ruby.dir_cntrl0       196749                       # Number of read requests responded to by this memory
system.mem_ctrls0.num_reads::total             196749                       # Number of read requests responded to by this memory
system.mem_ctrls0.num_writes::ruby.dir_cntrl0       125079                       # Number of write requests responded to by this memory
system.mem_ctrls0.num_writes::total            125079                       # Number of write requests responded to by this memory
system.mem_ctrls0.bw_read::ruby.dir_cntrl0    221496151                       # Total read bandwidth from this memory (bytes/s)
system.mem_ctrls0.bw_read::total            221496151                       # Total read bandwidth from this memory (bytes/s)
system.mem_ctrls0.bw_write::ruby.dir_cntrl0    140811476                       # Write bandwidth from this memory (bytes/s)
system.mem_ctrls0.bw_write::total           140811476                       # Write bandwidth from this memory (bytes/s)
system.mem_ctrls0.bw_total::ruby.dir_cntrl0    362307626                       # Total bandwidth to/from this memory (bytes/s)
system.mem_ctrls0.bw_total::total           362307626                       # Total bandwidth to/from this memory (bytes/s)
system.mem_ctrls0.readReqs                     196749                       # Number of read requests accepted
system.mem_ctrls0.writeReqs                    125079                       # Number of write requests accepted
system.mem_ctrls0.readBursts                   196749                       # Number of DRAM read bursts, including those serviced by the write queue
system.mem_ctrls0.writeBursts                  125079                       # Number of DRAM write bursts, including those merged in the write queue
system.mem_ctrls0.bytesReadDRAM              12590656                       # Total number of bytes read from DRAM
system.mem_ctrls0.bytesReadWrQ                   1280                       # Total number of bytes read from write queue
system.mem_ctrls0.bytesWritten                8004992                       # Total number of bytes written to DRAM
system.mem_ctrls0.bytesReadSys               12591936                       # Total read bytes from the system interface side
system.mem_ctrls0.bytesWrittenSys             8005056                       # Total written bytes from the system interface side
system.mem_ctrls0.servicedByWrQ                    20                       # Number of DRAM read bursts serviced by the write queue
system.mem_ctrls0.mergedWrBursts                    0                       # Number of DRAM write bursts merged with an existing one
system.mem_ctrls0.neitherReadNorWriteReqs            0                       # Number of requests that are neither read nor write
system.mem_ctrls0.perBankRdBursts::0            12050                       # Per bank write bursts
system.mem_ctrls0.perBankRdBursts::1            12261                       # Per bank write bursts
system.mem_ctrls0.perBankRdBursts::2            11948                       # Per bank write bursts
system.mem_ctrls0.perBankRdBursts::3            12402                       # Per bank write bursts
system.mem_ctrls0.perBankRdBursts::4            12215                       # Per bank write bursts
system.mem_ctrls0.perBankRdBursts::5            12273                       # Per bank write bursts
system.mem_ctrls0.perBankRdBursts::6            12528                       # Per bank write bursts
system.mem_ctrls0.perBankRdBursts::7            12582                       # Per bank write bursts
system.mem_ctrls0.perBankRdBursts::8            12459                       # Per bank write bursts
system.mem_ctrls0.perBankRdBursts::9            12678                       # Per bank write bursts
system.mem_ctrls0.perBankRdBursts::10           12382                       # Per bank write bursts
system.mem_ctrls0.perBankRdBursts::11           12687                       # Per bank write bursts
system.mem_ctrls0.perBankRdBursts::12           12230                       # Per bank write bursts
system.mem_ctrls0.perBankRdBursts::13           12006                       # Per bank write bursts
system.mem_ctrls0.perBankRdBursts::14           12242                       # Per bank write bursts
system.mem_ctrls0.perBankRdBursts::15           11786                       # Per bank write bursts
system.mem_ctrls0.perBankWrBursts::0             7748                       # Per bank write bursts
system.mem_ctrls0.perBankWrBursts::1             7615                       # Per bank write bursts
system.mem_ctrls0.perBankWrBursts::2             7751                       # Per bank write bursts
system.mem_ctrls0.perBankWrBursts::3             7848                       # Per bank write bursts
system.mem_ctrls0.perBankWrBursts::4             7722                       # Per bank write bursts
system.mem_ctrls0.perBankWrBursts::5             7852                       # Per bank write bursts
system.mem_ctrls0.perBankWrBursts::6             7912                       # Per bank write bursts
system.mem_ctrls0.perBankWrBursts::7             7983                       # Per bank write bursts
system.mem_ctrls0.perBankWrBursts::8             7878                       # Per bank write bursts
system.mem_ctrls0.perBankWrBursts::9             8050                       # Per bank write bursts
system.mem_ctrls0.perBankWrBursts::10            7835                       # Per bank write bursts
system.mem_ctrls0.perBankWrBursts::11            7867                       # Per bank write bursts
system.mem_ctrls0.perBankWrBursts::12            7762                       # Per bank write bursts
system.mem_ctrls0.perBankWrBursts::13            7739                       # Per bank write bursts
system.mem_ctrls0.perBankWrBursts::14            7897                       # Per bank write bursts
system.mem_ctrls0.perBankWrBursts::15            7619                       # Per bank write bursts
system.mem_ctrls0.numRdRetry                    96364                       # Number of times read queue was full causing retry
system.mem_ctrls0.numWrRetry                     8093                       # Number of times write queue was full causing retry
system.mem_ctrls0.totGap                  56848942000                       # Total gap between requests
system.mem_ctrls0.readPktSize::0                    0                       # Read request sizes (log2)
system.mem_ctrls0.readPktSize::1                    0                       # Read request sizes (log2)
system.mem_ctrls0.readPktSize::2                    0                       # Read request sizes (log2)
system.mem_ctrls0.readPktSize::3                    0                       # Read request sizes (log2)
system.mem_ctrls0.readPktSize::4                    0                       # Read request sizes (log2)
system.mem_ctrls0.readPktSize::5                    0                       # Read request sizes (log2)
system.mem_ctrls0.readPktSize::6               196749                       # Read request sizes (log2)
system.mem_ctrls0.writePktSize::0                   0                       # Write request sizes (log2)
system.mem_ctrls0.writePktSize::1                   0                       # Write request sizes (log2)
system.mem_ctrls0.writePktSize::2                   0                       # Write request sizes (log2)
system.mem_ctrls0.writePktSize::3                   0                       # Write request sizes (log2)
system.mem_ctrls0.writePktSize::4                   0                       # Write request sizes (log2)
system.mem_ctrls0.writePktSize::5                   0                       # Write request sizes (log2)
system.mem_ctrls0.writePktSize::6              125079                       # Write request sizes (log2)
system.mem_ctrls0.rdQLenPdf::0                  69836                       # What read queue length does an incoming req see
system.mem_ctrls0.rdQLenPdf::1                   3809                       # What read queue length does an incoming req see
system.mem_ctrls0.rdQLenPdf::2                   2187                       # What read queue length does an incoming req see
system.mem_ctrls0.rdQLenPdf::3                   1276                       # What read queue length does an incoming req see
system.mem_ctrls0.rdQLenPdf::4                   1100                       # What read queue length does an incoming req see
system.mem_ctrls0.rdQLenPdf::5                    999                       # What read queue length does an incoming req see
system.mem_ctrls0.rdQLenPdf::6                    937                       # What read queue length does an incoming req see
system.mem_ctrls0.rdQLenPdf::7                    920                       # What read queue length does an incoming req see
system.mem_ctrls0.rdQLenPdf::8                    933                       # What read queue length does an incoming req see
system.mem_ctrls0.rdQLenPdf::9                    869                       # What read queue length does an incoming req see
system.mem_ctrls0.rdQLenPdf::10                   845                       # What read queue length does an incoming req see
system.mem_ctrls0.rdQLenPdf::11                   804                       # What read queue length does an incoming req see
system.mem_ctrls0.rdQLenPdf::12                   814                       # What read queue length does an incoming req see
system.mem_ctrls0.rdQLenPdf::13                   765                       # What read queue length does an incoming req see
system.mem_ctrls0.rdQLenPdf::14                   737                       # What read queue length does an incoming req see
system.mem_ctrls0.rdQLenPdf::15                   702                       # What read queue length does an incoming req see
system.mem_ctrls0.rdQLenPdf::16                   696                       # What read queue length does an incoming req see
system.mem_ctrls0.rdQLenPdf::17                   691                       # What read queue length does an incoming req see
system.mem_ctrls0.rdQLenPdf::18                   666                       # What read queue length does an incoming req see
system.mem_ctrls0.rdQLenPdf::19                   633                       # What read queue length does an incoming req see
system.mem_ctrls0.rdQLenPdf::20                   626                       # What read queue length does an incoming req see
system.mem_ctrls0.rdQLenPdf::21                   611                       # What read queue length does an incoming req see
system.mem_ctrls0.rdQLenPdf::22                   605                       # What read queue length does an incoming req see
system.mem_ctrls0.rdQLenPdf::23                   607                       # What read queue length does an incoming req see
system.mem_ctrls0.rdQLenPdf::24                   582                       # What read queue length does an incoming req see
system.mem_ctrls0.rdQLenPdf::25                   603                       # What read queue length does an incoming req see
system.mem_ctrls0.rdQLenPdf::26                   577                       # What read queue length does an incoming req see
system.mem_ctrls0.rdQLenPdf::27                   622                       # What read queue length does an incoming req see
system.mem_ctrls0.rdQLenPdf::28                   696                       # What read queue length does an incoming req see
system.mem_ctrls0.rdQLenPdf::29                   867                       # What read queue length does an incoming req see
system.mem_ctrls0.rdQLenPdf::30                  1296                       # What read queue length does an incoming req see
system.mem_ctrls0.rdQLenPdf::31                 98818                       # What read queue length does an incoming req see
system.mem_ctrls0.wrQLenPdf::0                  16889                       # What write queue length does an incoming req see
system.mem_ctrls0.wrQLenPdf::1                  17847                       # What write queue length does an incoming req see
system.mem_ctrls0.wrQLenPdf::2                  18457                       # What write queue length does an incoming req see
system.mem_ctrls0.wrQLenPdf::3                  18877                       # What write queue length does an incoming req see
system.mem_ctrls0.wrQLenPdf::4                  19600                       # What write queue length does an incoming req see
system.mem_ctrls0.wrQLenPdf::5                   7970                       # What write queue length does an incoming req see
system.mem_ctrls0.wrQLenPdf::6                   9689                       # What write queue length does an incoming req see
system.mem_ctrls0.wrQLenPdf::7                  15750                       # What write queue length does an incoming req see
system.mem_ctrls0.bytesPerActivate::samples       105874                       # Bytes accessed per row activation
system.mem_ctrls0.bytesPerActivate::mean   194.524964                       # Bytes accessed per row activation
system.mem_ctrls0.bytesPerActivate::gmean   144.346384                       # Bytes accessed per row activation
system.mem_ctrls0.bytesPerActivate::stdev   168.979662                       # Bytes accessed per row activation
system.mem_ctrls0.bytesPerActivate::0-127        39842     37.63%     37.63% # Bytes accessed per row activation
system.mem_ctrls0.bytesPerActivate::128-255        31307     29.57%     67.20% # Bytes accessed per row activation
system.mem_ctrls0.bytesPerActivate::256-383        23285     21.99%     89.19% # Bytes accessed per row activation
system.mem_ctrls0.bytesPerActivate::384-511         5019      4.74%     93.94% # Bytes accessed per row activation
system.mem_ctrls0.bytesPerActivate::512-639         3270      3.09%     97.02% # Bytes accessed per row activation
system.mem_ctrls0.bytesPerActivate::640-767         1074      1.01%     98.04% # Bytes accessed per row activation
system.mem_ctrls0.bytesPerActivate::768-895          587      0.55%     98.59% # Bytes accessed per row activation
system.mem_ctrls0.bytesPerActivate::896-1023          491      0.46%     99.06% # Bytes accessed per row activation
system.mem_ctrls0.bytesPerActivate::1024-1151          999      0.94%    100.00% # Bytes accessed per row activation
system.mem_ctrls0.bytesPerActivate::total       105874                       # Bytes accessed per row activation
system.mem_ctrls0.rdPerTurnAround::samples        17495                       # Reads before turning the bus around for writes
system.mem_ctrls0.rdPerTurnAround::mean     11.244813                       # Reads before turning the bus around for writes
system.mem_ctrls0.rdPerTurnAround::stdev    32.059330                       # Reads before turning the bus around for writes
system.mem_ctrls0.rdPerTurnAround::0-127        17487     99.95%     99.95% # Reads before turning the bus around for writes
system.mem_ctrls0.rdPerTurnAround::128-255            7      0.04%     99.99% # Reads before turning the bus around for writes
system.mem_ctrls0.rdPerTurnAround::3968-4095            1      0.01%    100.00% # Reads before turning the bus around for writes
system.mem_ctrls0.rdPerTurnAround::total        17495                       # Reads before turning the bus around for writes
system.mem_ctrls0.wrPerTurnAround::samples        17495                       # Writes before turning the bus around for reads
system.mem_ctrls0.wrPerTurnAround::mean      7.149357                       # Writes before turning the bus around for reads
system.mem_ctrls0.wrPerTurnAround::gmean     6.478685                       # Writes before turning the bus around for reads
system.mem_ctrls0.wrPerTurnAround::stdev     3.617159                       # Writes before turning the bus around for reads
system.mem_ctrls0.wrPerTurnAround::4-7          12630     72.19%     72.19% # Writes before turning the bus around for reads
system.mem_ctrls0.wrPerTurnAround::8-11          1896     10.84%     83.03% # Writes before turning the bus around for reads
system.mem_ctrls0.wrPerTurnAround::12-15         1971     11.27%     94.30% # Writes before turning the bus around for reads
system.mem_ctrls0.wrPerTurnAround::16-19          998      5.70%    100.00% # Writes before turning the bus around for reads
system.mem_ctrls0.wrPerTurnAround::total        17495                       # Writes before turning the bus around for reads
system.mem_ctrls0.totQLat                 37418320982                       # Total ticks spent queuing
system.mem_ctrls0.totMemAccLat            41106989732                       # Total ticks spent from burst creation until serviced by the DRAM
system.mem_ctrls0.totBusLat                 983645000                       # Total ticks spent in databus transfers
system.mem_ctrls0.avgQLat                   190202.36                       # Average queueing delay per DRAM burst
system.mem_ctrls0.avgBusLat                   5000.00                       # Average bus latency per DRAM burst
system.mem_ctrls0.avgMemAccLat              208952.36                       # Average memory access latency per DRAM burst
system.mem_ctrls0.avgRdBW                      221.47                       # Average DRAM read bandwidth in MiByte/s
system.mem_ctrls0.avgWrBW                      140.81                       # Average achieved write bandwidth in MiByte/s
system.mem_ctrls0.avgRdBWSys                   221.50                       # Average system read bandwidth in MiByte/s
system.mem_ctrls0.avgWrBWSys                   140.81                       # Average system write bandwidth in MiByte/s
system.mem_ctrls0.peakBW                     12800.00                       # Theoretical peak bandwidth in MiByte/s
system.mem_ctrls0.busUtil                        2.83                       # Data bus utilization in percentage
system.mem_ctrls0.busUtilRead                    1.73                       # Data bus utilization in percentage for reads
system.mem_ctrls0.busUtilWrite                   1.10                       # Data bus utilization in percentage for writes
system.mem_ctrls0.avgRdQLen                      1.68                       # Average read queue length when enqueuing
system.mem_ctrls0.avgWrQLen                      2.94                       # Average write queue length when enqueuing
system.mem_ctrls0.readRowHits                  143409                       # Number of row buffer hits during reads
system.mem_ctrls0.writeRowHits                  72516                       # Number of row buffer hits during writes
system.mem_ctrls0.readRowHitRate                72.90                       # Row buffer hit rate for reads
system.mem_ctrls0.writeRowHitRate               57.98                       # Row buffer hit rate for writes
system.mem_ctrls0.avgGap                    176643.87                       # Average gap between requests
system.mem_ctrls0.pageHitRate                   67.10                       # Row buffer hit rate, read and write combined
system.mem_ctrls0.memoryStateTime::IDLE   11626698000                       # Time in different power states
system.mem_ctrls0.memoryStateTime::REF     1898260000                       # Time in different power states
system.mem_ctrls0.memoryStateTime::PRE_PDN            0                       # Time in different power states
system.mem_ctrls0.memoryStateTime::ACT    43322727000                       # Time in different power states
system.mem_ctrls0.memoryStateTime::ACT_PDN            0                       # Time in different power states
system.mem_ctrls0.actEnergy::0              402312960                       # Energy for activate commands per rank (pJ)
system.mem_ctrls0.actEnergy::1              398026440                       # Energy for activate commands per rank (pJ)
system.mem_ctrls0.preEnergy::0              219516000                       # Energy for precharge commands per rank (pJ)
system.mem_ctrls0.preEnergy::1              217177125                       # Energy for precharge commands per rank (pJ)
system.mem_ctrls0.readEnergy::0             766412400                       # Energy for read commands per rank (pJ)
system.mem_ctrls0.readEnergy::1             768003600                       # Energy for read commands per rank (pJ)
system.mem_ctrls0.writeEnergy::0            404526960                       # Energy for write commands per rank (pJ)
system.mem_ctrls0.writeEnergy::1            405913680                       # Energy for write commands per rank (pJ)
system.mem_ctrls0.refreshEnergy::0         3712996560                       # Energy for refresh commands per rank (pJ)
system.mem_ctrls0.refreshEnergy::1         3712996560                       # Energy for refresh commands per rank (pJ)
system.mem_ctrls0.actBackEnergy::0        22388205780                       # Energy for active background per rank (pJ)
system.mem_ctrls0.actBackEnergy::1        21868407675                       # Energy for active background per rank (pJ)
system.mem_ctrls0.preBackEnergy::0        14469825750                       # Energy for precharge background per rank (pJ)
system.mem_ctrls0.preBackEnergy::1        14925789000                       # Energy for precharge background per rank (pJ)
system.mem_ctrls0.totalEnergy::0          42363796410                       # Total energy per rank (pJ)
system.mem_ctrls0.totalEnergy::1          42296314080                       # Total energy per rank (pJ)
system.mem_ctrls0.averagePower::0          745.216039                       # Core power per rank (mW)
system.mem_ctrls0.averagePower::1          744.028966                       # Core power per rank (mW)
system.mem_ctrls1.bytes_read::ruby.dir_cntrl1     12344576                       # Number of bytes read from this memory
system.mem_ctrls1.bytes_read::total          12344576                       # Number of bytes read from this memory
system.mem_ctrls1.bytes_written::ruby.dir_cntrl1      7779328                       # Number of bytes written to this memory
system.mem_ctrls1.bytes_written::total        7779328                       # Number of bytes written to this memory
system.mem_ctrls1.num_reads::ruby.dir_cntrl1       192884                       # Number of read requests responded to by this memory
system.mem_ctrls1.num_reads::total             192884                       # Number of read requests responded to by this memory
system.mem_ctrls1.num_writes::ruby.dir_cntrl1       121552                       # Number of write requests responded to by this memory
system.mem_ctrls1.num_writes::total            121552                       # Number of write requests responded to by this memory
system.mem_ctrls1.bw_read::ruby.dir_cntrl1    217145010                       # Total read bandwidth from this memory (bytes/s)
system.mem_ctrls1.bw_read::total            217145010                       # Total read bandwidth from this memory (bytes/s)
system.mem_ctrls1.bw_write::ruby.dir_cntrl1    136840848                       # Write bandwidth from this memory (bytes/s)
system.mem_ctrls1.bw_write::total           136840848                       # Write bandwidth from this memory (bytes/s)
system.mem_ctrls1.bw_total::ruby.dir_cntrl1    353985858                       # Total bandwidth to/from this memory (bytes/s)
system.mem_ctrls1.bw_total::total           353985858                       # Total bandwidth to/from this memory (bytes/s)
system.mem_ctrls1.readReqs                     192884                       # Number of read requests accepted
system.mem_ctrls1.writeReqs                    121552                       # Number of write requests accepted
system.mem_ctrls1.readBursts                   192884                       # Number of DRAM read bursts, including those serviced by the write queue
system.mem_ctrls1.writeBursts                  121552                       # Number of DRAM write bursts, including those merged in the write queue
system.mem_ctrls1.bytesReadDRAM              12343488                       # Total number of bytes read from DRAM
system.mem_ctrls1.bytesReadWrQ                   1088                       # Total number of bytes read from write queue
system.mem_ctrls1.bytesWritten                7779200                       # Total number of bytes written to DRAM
system.mem_ctrls1.bytesReadSys               12344576                       # Total read bytes from the system interface side
system.mem_ctrls1.bytesWrittenSys             7779328                       # Total written bytes from the system interface side
system.mem_ctrls1.servicedByWrQ                    17                       # Number of DRAM read bursts serviced by the write queue
system.mem_ctrls1.mergedWrBursts                    0                       # Number of DRAM write bursts merged with an existing one
system.mem_ctrls1.neitherReadNorWriteReqs            0                       # Number of requests that are neither read nor write
system.mem_ctrls1.perBankRdBursts::0            11830                       # Per bank write bursts
system.mem_ctrls1.perBankRdBursts::1            12010                       # Per bank write bursts
system.mem_ctrls1.perBankRdBursts::2            11696                       # Per bank write bursts
system.mem_ctrls1.perBankRdBursts::3            12161                       # Per bank write bursts
system.mem_ctrls1.perBankRdBursts::4            11995                       # Per bank write bursts
system.mem_ctrls1.perBankRdBursts::5            12055                       # Per bank write bursts
system.mem_ctrls1.perBankRdBursts::6            12327                       # Per bank write bursts
system.mem_ctrls1.perBankRdBursts::7            12334                       # Per bank write bursts
system.mem_ctrls1.perBankRdBursts::8            12206                       # Per bank write bursts
system.mem_ctrls1.perBankRdBursts::9            12439                       # Per bank write bursts
system.mem_ctrls1.perBankRdBursts::10           12114                       # Per bank write bursts
system.mem_ctrls1.perBankRdBursts::11           12469                       # Per bank write bursts
system.mem_ctrls1.perBankRdBursts::12           11980                       # Per bank write bursts
system.mem_ctrls1.perBankRdBursts::13           11757                       # Per bank write bursts
system.mem_ctrls1.perBankRdBursts::14           11915                       # Per bank write bursts
system.mem_ctrls1.perBankRdBursts::15           11579                       # Per bank write bursts
system.mem_ctrls1.perBankWrBursts::0             7542                       # Per bank write bursts
system.mem_ctrls1.perBankWrBursts::1             7417                       # Per bank write bursts
system.mem_ctrls1.perBankWrBursts::2             7537                       # Per bank write bursts
system.mem_ctrls1.perBankWrBursts::3             7634                       # Per bank write bursts
system.mem_ctrls1.perBankWrBursts::4             7515                       # Per bank write bursts
system.mem_ctrls1.perBankWrBursts::5             7643                       # Per bank write bursts
system.mem_ctrls1.perBankWrBursts::6             7684                       # Per bank write bursts
system.mem_ctrls1.perBankWrBursts::7             7756                       # Per bank write bursts
system.mem_ctrls1.perBankWrBursts::8             7655                       # Per bank write bursts
system.mem_ctrls1.perBankWrBursts::9             7833                       # Per bank write bursts
system.mem_ctrls1.perBankWrBursts::10            7608                       # Per bank write bursts
system.mem_ctrls1.perBankWrBursts::11            7643                       # Per bank write bursts
system.mem_ctrls1.perBankWrBursts::12            7544                       # Per bank write bursts
system.mem_ctrls1.perBankWrBursts::13            7513                       # Per bank write bursts
system.mem_ctrls1.perBankWrBursts::14            7619                       # Per bank write bursts
system.mem_ctrls1.perBankWrBursts::15            7407                       # Per bank write bursts
system.mem_ctrls1.numRdRetry                    93686                       # Number of times read queue was full causing retry
system.mem_ctrls1.numWrRetry                     7940                       # Number of times write queue was full causing retry
system.mem_ctrls1.totGap                  56848691500                       # Total gap between requests
system.mem_ctrls1.readPktSize::0                    0                       # Read request sizes (log2)
system.mem_ctrls1.readPktSize::1                    0                       # Read request sizes (log2)
system.mem_ctrls1.readPktSize::2                    0                       # Read request sizes (log2)
system.mem_ctrls1.readPktSize::3                    0                       # Read request sizes (log2)
system.mem_ctrls1.readPktSize::4                    0                       # Read request sizes (log2)
system.mem_ctrls1.readPktSize::5                    0                       # Read request sizes (log2)
system.mem_ctrls1.readPktSize::6               192884                       # Read request sizes (log2)
system.mem_ctrls1.writePktSize::0                   0                       # Write request sizes (log2)
system.mem_ctrls1.writePktSize::1                   0                       # Write request sizes (log2)
system.mem_ctrls1.writePktSize::2                   0                       # Write request sizes (log2)
system.mem_ctrls1.writePktSize::3                   0                       # Write request sizes (log2)
system.mem_ctrls1.writePktSize::4                   0                       # Write request sizes (log2)
system.mem_ctrls1.writePktSize::5                   0                       # Write request sizes (log2)
system.mem_ctrls1.writePktSize::6              121552                       # Write request sizes (log2)
system.mem_ctrls1.rdQLenPdf::0                  68639                       # What read queue length does an incoming req see
system.mem_ctrls1.rdQLenPdf::1                   2499                       # What read queue length does an incoming req see
system.mem_ctrls1.rdQLenPdf::2                   1645                       # What read queue length does an incoming req see
system.mem_ctrls1.rdQLenPdf::3                   1381                       # What read queue length does an incoming req see
system.mem_ctrls1.rdQLenPdf::4                   1211                       # What read queue length does an incoming req see
system.mem_ctrls1.rdQLenPdf::5                   1130                       # What read queue length does an incoming req see
system.mem_ctrls1.rdQLenPdf::6                   1099                       # What read queue length does an incoming req see
system.mem_ctrls1.rdQLenPdf::7                   1021                       # What read queue length does an incoming req see
system.mem_ctrls1.rdQLenPdf::8                    956                       # What read queue length does an incoming req see
system.mem_ctrls1.rdQLenPdf::9                    919                       # What read queue length does an incoming req see
system.mem_ctrls1.rdQLenPdf::10                   868                       # What read queue length does an incoming req see
system.mem_ctrls1.rdQLenPdf::11                   844                       # What read queue length does an incoming req see
system.mem_ctrls1.rdQLenPdf::12                   814                       # What read queue length does an incoming req see
system.mem_ctrls1.rdQLenPdf::13                   798                       # What read queue length does an incoming req see
system.mem_ctrls1.rdQLenPdf::14                   745                       # What read queue length does an incoming req see
system.mem_ctrls1.rdQLenPdf::15                   734                       # What read queue length does an incoming req see
system.mem_ctrls1.rdQLenPdf::16                   667                       # What read queue length does an incoming req see
system.mem_ctrls1.rdQLenPdf::17                   667                       # What read queue length does an incoming req see
system.mem_ctrls1.rdQLenPdf::18                   724                       # What read queue length does an incoming req see
system.mem_ctrls1.rdQLenPdf::19                   750                       # What read queue length does an incoming req see
system.mem_ctrls1.rdQLenPdf::20                   742                       # What read queue length does an incoming req see
system.mem_ctrls1.rdQLenPdf::21                   710                       # What read queue length does an incoming req see
system.mem_ctrls1.rdQLenPdf::22                   686                       # What read queue length does an incoming req see
system.mem_ctrls1.rdQLenPdf::23                   687                       # What read queue length does an incoming req see
system.mem_ctrls1.rdQLenPdf::24                   678                       # What read queue length does an incoming req see
system.mem_ctrls1.rdQLenPdf::25                   655                       # What read queue length does an incoming req see
system.mem_ctrls1.rdQLenPdf::26                   665                       # What read queue length does an incoming req see
system.mem_ctrls1.rdQLenPdf::27                   761                       # What read queue length does an incoming req see
system.mem_ctrls1.rdQLenPdf::28                   805                       # What read queue length does an incoming req see
system.mem_ctrls1.rdQLenPdf::29                   934                       # What read queue length does an incoming req see
system.mem_ctrls1.rdQLenPdf::30                  1317                       # What read queue length does an incoming req see
system.mem_ctrls1.rdQLenPdf::31                 96116                       # What read queue length does an incoming req see
system.mem_ctrls1.wrQLenPdf::0                  16302                       # What write queue length does an incoming req see
system.mem_ctrls1.wrQLenPdf::1                  17250                       # What write queue length does an incoming req see
system.mem_ctrls1.wrQLenPdf::2                  17804                       # What write queue length does an incoming req see
system.mem_ctrls1.wrQLenPdf::3                  18242                       # What write queue length does an incoming req see
system.mem_ctrls1.wrQLenPdf::4                  18996                       # What write queue length does an incoming req see
system.mem_ctrls1.wrQLenPdf::5                   7853                       # What write queue length does an incoming req see
system.mem_ctrls1.wrQLenPdf::6                   9482                       # What write queue length does an incoming req see
system.mem_ctrls1.wrQLenPdf::7                  15623                       # What write queue length does an incoming req see
system.mem_ctrls1.bytesPerActivate::samples        98858                       # Bytes accessed per row activation
system.mem_ctrls1.bytesPerActivate::mean   203.547553                       # Bytes accessed per row activation
system.mem_ctrls1.bytesPerActivate::gmean   152.014401                       # Bytes accessed per row activation
system.mem_ctrls1.bytesPerActivate::stdev   172.158017                       # Bytes accessed per row activation
system.mem_ctrls1.bytesPerActivate::0-127        33710     34.10%     34.10% # Bytes accessed per row activation
system.mem_ctrls1.bytesPerActivate::128-255        30410     30.76%     64.86% # Bytes accessed per row activation
system.mem_ctrls1.bytesPerActivate::256-383        23183     23.45%     88.31% # Bytes accessed per row activation
system.mem_ctrls1.bytesPerActivate::384-511         5016      5.07%     93.39% # Bytes accessed per row activation
system.mem_ctrls1.bytesPerActivate::512-639         3341      3.38%     96.77% # Bytes accessed per row activation
system.mem_ctrls1.bytesPerActivate::640-767         1048      1.06%     97.83% # Bytes accessed per row activation
system.mem_ctrls1.bytesPerActivate::768-895          681      0.69%     98.51% # Bytes accessed per row activation
system.mem_ctrls1.bytesPerActivate::896-1023          469      0.47%     98.99% # Bytes accessed per row activation
system.mem_ctrls1.bytesPerActivate::1024-1151         1000      1.01%    100.00% # Bytes accessed per row activation
system.mem_ctrls1.bytesPerActivate::total        98858                       # Bytes accessed per row activation
system.mem_ctrls1.rdPerTurnAround::samples        16911                       # Reads before turning the bus around for writes
system.mem_ctrls1.rdPerTurnAround::mean     11.404707                       # Reads before turning the bus around for writes
system.mem_ctrls1.rdPerTurnAround::stdev    26.451200                       # Reads before turning the bus around for writes
system.mem_ctrls1.rdPerTurnAround::0-127        16904     99.96%     99.96% # Reads before turning the bus around for writes
system.mem_ctrls1.rdPerTurnAround::128-255            5      0.03%     99.99% # Reads before turning the bus around for writes
system.mem_ctrls1.rdPerTurnAround::1152-1279            1      0.01%     99.99% # Reads before turning the bus around for writes
system.mem_ctrls1.rdPerTurnAround::2816-2943            1      0.01%    100.00% # Reads before turning the bus around for writes
system.mem_ctrls1.rdPerTurnAround::total        16911                       # Reads before turning the bus around for writes
system.mem_ctrls1.wrPerTurnAround::samples        16911                       # Writes before turning the bus around for reads
system.mem_ctrls1.wrPerTurnAround::mean      7.187629                       # Writes before turning the bus around for reads
system.mem_ctrls1.wrPerTurnAround::gmean     6.502389                       # Writes before turning the bus around for reads
system.mem_ctrls1.wrPerTurnAround::stdev     3.653257                       # Writes before turning the bus around for reads
system.mem_ctrls1.wrPerTurnAround::4-7          12065     71.34%     71.34% # Writes before turning the bus around for reads
system.mem_ctrls1.wrPerTurnAround::8-11          1940     11.47%     82.82% # Writes before turning the bus around for reads
system.mem_ctrls1.wrPerTurnAround::12-15         1895     11.21%     94.02% # Writes before turning the bus around for reads
system.mem_ctrls1.wrPerTurnAround::16-19         1011      5.98%    100.00% # Writes before turning the bus around for reads
system.mem_ctrls1.wrPerTurnAround::total        16911                       # Writes before turning the bus around for reads
system.mem_ctrls1.totQLat                 36621560705                       # Total ticks spent queuing
system.mem_ctrls1.totMemAccLat            40237816955                       # Total ticks spent from burst creation until serviced by the DRAM
system.mem_ctrls1.totBusLat                 964335000                       # Total ticks spent in databus transfers
system.mem_ctrls1.avgQLat                   189879.87                       # Average queueing delay per DRAM burst
system.mem_ctrls1.avgBusLat                   5000.00                       # Average bus latency per DRAM burst
system.mem_ctrls1.avgMemAccLat              208629.87                       # Average memory access latency per DRAM burst
system.mem_ctrls1.avgRdBW                      217.13                       # Average DRAM read bandwidth in MiByte/s
system.mem_ctrls1.avgWrBW                      136.84                       # Average achieved write bandwidth in MiByte/s
system.mem_ctrls1.avgRdBWSys                   217.15                       # Average system read bandwidth in MiByte/s
system.mem_ctrls1.avgWrBWSys                   136.84                       # Average system write bandwidth in MiByte/s
system.mem_ctrls1.peakBW                     12800.00                       # Theoretical peak bandwidth in MiByte/s
system.mem_ctrls1.busUtil                        2.77                       # Data bus utilization in percentage
system.mem_ctrls1.busUtilRead                    1.70                       # Data bus utilization in percentage for reads
system.mem_ctrls1.busUtilWrite                   1.07                       # Data bus utilization in percentage for writes
system.mem_ctrls1.avgRdQLen                      1.67                       # Average read queue length when enqueuing
system.mem_ctrls1.avgWrQLen                      2.98                       # Average write queue length when enqueuing
system.mem_ctrls1.readRowHits                  142078                       # Number of row buffer hits during reads
system.mem_ctrls1.writeRowHits                  73476                       # Number of row buffer hits during writes
system.mem_ctrls1.readRowHitRate                73.67                       # Row buffer hit rate for reads
system.mem_ctrls1.writeRowHitRate               60.45                       # Row buffer hit rate for writes
system.mem_ctrls1.avgGap                    180795.75                       # Average gap between requests
system.mem_ctrls1.pageHitRate                   68.56                       # Row buffer hit rate, read and write combined
system.mem_ctrls1.memoryStateTime::IDLE   11892410000                       # Time in different power states
system.mem_ctrls1.memoryStateTime::REF     1898260000                       # Time in different power states
system.mem_ctrls1.memoryStateTime::PRE_PDN            0                       # Time in different power states
system.mem_ctrls1.memoryStateTime::ACT    43057113000                       # Time in different power states
system.mem_ctrls1.memoryStateTime::ACT_PDN            0                       # Time in different power states
system.mem_ctrls1.actEnergy::0              375747120                       # Energy for activate commands per rank (pJ)
system.mem_ctrls1.actEnergy::1              371543760                       # Energy for activate commands per rank (pJ)
system.mem_ctrls1.preEnergy::0              205020750                       # Energy for precharge commands per rank (pJ)
system.mem_ctrls1.preEnergy::1              202727250                       # Energy for precharge commands per rank (pJ)
system.mem_ctrls1.readEnergy::0             751966800                       # Energy for read commands per rank (pJ)
system.mem_ctrls1.readEnergy::1             752325600                       # Energy for read commands per rank (pJ)
system.mem_ctrls1.writeEnergy::0            393491520                       # Energy for write commands per rank (pJ)
system.mem_ctrls1.writeEnergy::1            394087680                       # Energy for write commands per rank (pJ)
system.mem_ctrls1.refreshEnergy::0         3712996560                       # Energy for refresh commands per rank (pJ)
system.mem_ctrls1.refreshEnergy::1         3712996560                       # Energy for refresh commands per rank (pJ)
system.mem_ctrls1.actBackEnergy::0        22164902010                       # Energy for active background per rank (pJ)
system.mem_ctrls1.actBackEnergy::1        21607358220                       # Energy for active background per rank (pJ)
system.mem_ctrls1.preBackEnergy::0        14665706250                       # Energy for precharge background per rank (pJ)
system.mem_ctrls1.preBackEnergy::1        15154779750                       # Energy for precharge background per rank (pJ)
system.mem_ctrls1.totalEnergy::0          42269831010                       # Total energy per rank (pJ)
system.mem_ctrls1.totalEnergy::1          42195818820                       # Total energy per rank (pJ)
system.mem_ctrls1.averagePower::0          743.563106                       # Core power per rank (mW)
system.mem_ctrls1.averagePower::1          742.261167                       # Core power per rank (mW)
system.mem_ctrls2.bytes_read::ruby.dir_cntrl2     12348288                       # Number of bytes read from this memory
system.mem_ctrls2.bytes_read::total          12348288                       # Number of bytes read from this memory
system.mem_ctrls2.bytes_written::ruby.dir_cntrl2      7779264                       # Number of bytes written to this memory
system.mem_ctrls2.bytes_written::total        7779264                       # Number of bytes written to this memory
system.mem_ctrls2.num_reads::ruby.dir_cntrl2       192942                       # Number of read requests responded to by this memory
system.mem_ctrls2.num_reads::total             192942                       # Number of read requests responded to by this memory
system.mem_ctrls2.num_writes::ruby.dir_cntrl2       121551                       # Number of write requests responded to by this memory
system.mem_ctrls2.num_writes::total            121551                       # Number of write requests responded to by this memory
system.mem_ctrls2.bw_read::ruby.dir_cntrl2    217210305                       # Total read bandwidth from this memory (bytes/s)
system.mem_ctrls2.bw_read::total            217210305                       # Total read bandwidth from this memory (bytes/s)
system.mem_ctrls2.bw_write::ruby.dir_cntrl2    136839723                       # Write bandwidth from this memory (bytes/s)
system.mem_ctrls2.bw_write::total           136839723                       # Write bandwidth from this memory (bytes/s)
system.mem_ctrls2.bw_total::ruby.dir_cntrl2    354050028                       # Total bandwidth to/from this memory (bytes/s)
system.mem_ctrls2.bw_total::total           354050028                       # Total bandwidth to/from this memory (bytes/s)
system.mem_ctrls2.readReqs                     192942                       # Number of read requests accepted
system.mem_ctrls2.writeReqs                    121551                       # Number of write requests accepted
system.mem_ctrls2.readBursts                   192942                       # Number of DRAM read bursts, including those serviced by the write queue
system.mem_ctrls2.writeBursts                  121551                       # Number of DRAM write bursts, including those merged in the write queue
system.mem_ctrls2.bytesReadDRAM              12346880                       # Total number of bytes read from DRAM
system.mem_ctrls2.bytesReadWrQ                   1408                       # Total number of bytes read from write queue
system.mem_ctrls2.bytesWritten                7779136                       # Total number of bytes written to DRAM
system.mem_ctrls2.bytesReadSys               12348288                       # Total read bytes from the system interface side
system.mem_ctrls2.bytesWrittenSys             7779264                       # Total written bytes from the system interface side
system.mem_ctrls2.servicedByWrQ                    22                       # Number of DRAM read bursts serviced by the write queue
system.mem_ctrls2.mergedWrBursts                    0                       # Number of DRAM write bursts merged with an existing one
system.mem_ctrls2.neitherReadNorWriteReqs            0                       # Number of requests that are neither read nor write
system.mem_ctrls2.perBankRdBursts::0            11833                       # Per bank write bursts
system.mem_ctrls2.perBankRdBursts::1            12039                       # Per bank write bursts
system.mem_ctrls2.perBankRdBursts::2            11719                       # Per bank write bursts
system.mem_ctrls2.perBankRdBursts::3            12206                       # Per bank write bursts
system.mem_ctrls2.perBankRdBursts::4            11998                       # Per bank write bursts
system.mem_ctrls2.perBankRdBursts::5            12043                       # Per bank write bursts
system.mem_ctrls2.perBankRdBursts::6            12312                       # Per bank write bursts
system.mem_ctrls2.perBankRdBursts::7            12326                       # Per bank write bursts
system.mem_ctrls2.perBankRdBursts::8            12200                       # Per bank write bursts
system.mem_ctrls2.perBankRdBursts::9            12431                       # Per bank write bursts
system.mem_ctrls2.perBankRdBursts::10           12123                       # Per bank write bursts
system.mem_ctrls2.perBankRdBursts::11           12506                       # Per bank write bursts
system.mem_ctrls2.perBankRdBursts::12           11971                       # Per bank write bursts
system.mem_ctrls2.perBankRdBursts::13           11729                       # Per bank write bursts
system.mem_ctrls2.perBankRdBursts::14           11906                       # Per bank write bursts
system.mem_ctrls2.perBankRdBursts::15           11578                       # Per bank write bursts
system.mem_ctrls2.perBankWrBursts::0             7536                       # Per bank write bursts
system.mem_ctrls2.perBankWrBursts::1             7414                       # Per bank write bursts
system.mem_ctrls2.perBankWrBursts::2             7537                       # Per bank write bursts
system.mem_ctrls2.perBankWrBursts::3             7642                       # Per bank write bursts
system.mem_ctrls2.perBankWrBursts::4             7512                       # Per bank write bursts
system.mem_ctrls2.perBankWrBursts::5             7624                       # Per bank write bursts
system.mem_ctrls2.perBankWrBursts::6             7678                       # Per bank write bursts
system.mem_ctrls2.perBankWrBursts::7             7768                       # Per bank write bursts
system.mem_ctrls2.perBankWrBursts::8             7658                       # Per bank write bursts
system.mem_ctrls2.perBankWrBursts::9             7833                       # Per bank write bursts
system.mem_ctrls2.perBankWrBursts::10            7609                       # Per bank write bursts
system.mem_ctrls2.perBankWrBursts::11            7656                       # Per bank write bursts
system.mem_ctrls2.perBankWrBursts::12            7550                       # Per bank write bursts
system.mem_ctrls2.perBankWrBursts::13            7505                       # Per bank write bursts
system.mem_ctrls2.perBankWrBursts::14            7621                       # Per bank write bursts
system.mem_ctrls2.perBankWrBursts::15            7406                       # Per bank write bursts
system.mem_ctrls2.numRdRetry                    94120                       # Number of times read queue was full causing retry
system.mem_ctrls2.numWrRetry                     8020                       # Number of times write queue was full causing retry
system.mem_ctrls2.totGap                  56849351500                       # Total gap between requests
system.mem_ctrls2.readPktSize::0                    0                       # Read request sizes (log2)
system.mem_ctrls2.readPktSize::1                    0                       # Read request sizes (log2)
system.mem_ctrls2.readPktSize::2                    0                       # Read request sizes (log2)
system.mem_ctrls2.readPktSize::3                    0                       # Read request sizes (log2)
system.mem_ctrls2.readPktSize::4                    0                       # Read request sizes (log2)
system.mem_ctrls2.readPktSize::5                    0                       # Read request sizes (log2)
system.mem_ctrls2.readPktSize::6               192942                       # Read request sizes (log2)
system.mem_ctrls2.writePktSize::0                   0                       # Write request sizes (log2)
system.mem_ctrls2.writePktSize::1                   0                       # Write request sizes (log2)
system.mem_ctrls2.writePktSize::2                   0                       # Write request sizes (log2)
system.mem_ctrls2.writePktSize::3                   0                       # Write request sizes (log2)
system.mem_ctrls2.writePktSize::4                   0                       # Write request sizes (log2)
system.mem_ctrls2.writePktSize::5                   0                       # Write request sizes (log2)
system.mem_ctrls2.writePktSize::6              121551                       # Write request sizes (log2)
system.mem_ctrls2.rdQLenPdf::0                  68779                       # What read queue length does an incoming req see
system.mem_ctrls2.rdQLenPdf::1                   2425                       # What read queue length does an incoming req see
system.mem_ctrls2.rdQLenPdf::2                   1680                       # What read queue length does an incoming req see
system.mem_ctrls2.rdQLenPdf::3                   1403                       # What read queue length does an incoming req see
system.mem_ctrls2.rdQLenPdf::4                   1235                       # What read queue length does an incoming req see
system.mem_ctrls2.rdQLenPdf::5                   1135                       # What read queue length does an incoming req see
system.mem_ctrls2.rdQLenPdf::6                   1073                       # What read queue length does an incoming req see
system.mem_ctrls2.rdQLenPdf::7                    982                       # What read queue length does an incoming req see
system.mem_ctrls2.rdQLenPdf::8                    929                       # What read queue length does an incoming req see
system.mem_ctrls2.rdQLenPdf::9                    913                       # What read queue length does an incoming req see
system.mem_ctrls2.rdQLenPdf::10                   829                       # What read queue length does an incoming req see
system.mem_ctrls2.rdQLenPdf::11                   825                       # What read queue length does an incoming req see
system.mem_ctrls2.rdQLenPdf::12                   754                       # What read queue length does an incoming req see
system.mem_ctrls2.rdQLenPdf::13                   723                       # What read queue length does an incoming req see
system.mem_ctrls2.rdQLenPdf::14                   724                       # What read queue length does an incoming req see
system.mem_ctrls2.rdQLenPdf::15                   711                       # What read queue length does an incoming req see
system.mem_ctrls2.rdQLenPdf::16                   700                       # What read queue length does an incoming req see
system.mem_ctrls2.rdQLenPdf::17                   706                       # What read queue length does an incoming req see
system.mem_ctrls2.rdQLenPdf::18                   665                       # What read queue length does an incoming req see
system.mem_ctrls2.rdQLenPdf::19                   684                       # What read queue length does an incoming req see
system.mem_ctrls2.rdQLenPdf::20                   621                       # What read queue length does an incoming req see
system.mem_ctrls2.rdQLenPdf::21                   594                       # What read queue length does an incoming req see
system.mem_ctrls2.rdQLenPdf::22                   614                       # What read queue length does an incoming req see
system.mem_ctrls2.rdQLenPdf::23                   610                       # What read queue length does an incoming req see
system.mem_ctrls2.rdQLenPdf::24                   612                       # What read queue length does an incoming req see
system.mem_ctrls2.rdQLenPdf::25                   629                       # What read queue length does an incoming req see
system.mem_ctrls2.rdQLenPdf::26                   658                       # What read queue length does an incoming req see
system.mem_ctrls2.rdQLenPdf::27                   733                       # What read queue length does an incoming req see
system.mem_ctrls2.rdQLenPdf::28                   830                       # What read queue length does an incoming req see
system.mem_ctrls2.rdQLenPdf::29                  1055                       # What read queue length does an incoming req see
system.mem_ctrls2.rdQLenPdf::30                  1471                       # What read queue length does an incoming req see
system.mem_ctrls2.rdQLenPdf::31                 96618                       # What read queue length does an incoming req see
system.mem_ctrls2.wrQLenPdf::0                  16296                       # What write queue length does an incoming req see
system.mem_ctrls2.wrQLenPdf::1                  17173                       # What write queue length does an incoming req see
system.mem_ctrls2.wrQLenPdf::2                  17678                       # What write queue length does an incoming req see
system.mem_ctrls2.wrQLenPdf::3                  18296                       # What write queue length does an incoming req see
system.mem_ctrls2.wrQLenPdf::4                  19057                       # What write queue length does an incoming req see
system.mem_ctrls2.wrQLenPdf::5                   7923                       # What write queue length does an incoming req see
system.mem_ctrls2.wrQLenPdf::6                   9442                       # What write queue length does an incoming req see
system.mem_ctrls2.wrQLenPdf::7                  15686                       # What write queue length does an incoming req see
system.mem_ctrls2.bytesPerActivate::samples        98463                       # Bytes accessed per row activation
system.mem_ctrls2.bytesPerActivate::mean   204.399216                       # Bytes accessed per row activation
system.mem_ctrls2.bytesPerActivate::gmean   152.793163                       # Bytes accessed per row activation
system.mem_ctrls2.bytesPerActivate::stdev   171.787889                       # Bytes accessed per row activation
system.mem_ctrls2.bytesPerActivate::0-127        33437     33.96%     33.96% # Bytes accessed per row activation
system.mem_ctrls2.bytesPerActivate::128-255        29979     30.45%     64.41% # Bytes accessed per row activation
system.mem_ctrls2.bytesPerActivate::256-383        23512     23.88%     88.28% # Bytes accessed per row activation
system.mem_ctrls2.bytesPerActivate::384-511         5001      5.08%     93.36% # Bytes accessed per row activation
system.mem_ctrls2.bytesPerActivate::512-639         3421      3.47%     96.84% # Bytes accessed per row activation
system.mem_ctrls2.bytesPerActivate::640-767         1024      1.04%     97.88% # Bytes accessed per row activation
system.mem_ctrls2.bytesPerActivate::768-895          644      0.65%     98.53% # Bytes accessed per row activation
system.mem_ctrls2.bytesPerActivate::896-1023          439      0.45%     98.98% # Bytes accessed per row activation
system.mem_ctrls2.bytesPerActivate::1024-1151         1006      1.02%    100.00% # Bytes accessed per row activation
system.mem_ctrls2.bytesPerActivate::total        98463                       # Bytes accessed per row activation
system.mem_ctrls2.rdPerTurnAround::samples        16920                       # Reads before turning the bus around for writes
system.mem_ctrls2.rdPerTurnAround::mean     11.401773                       # Reads before turning the bus around for writes
system.mem_ctrls2.rdPerTurnAround::stdev    26.472446                       # Reads before turning the bus around for writes
system.mem_ctrls2.rdPerTurnAround::0-127        16915     99.97%     99.97% # Reads before turning the bus around for writes
system.mem_ctrls2.rdPerTurnAround::128-255            3      0.02%     99.99% # Reads before turning the bus around for writes
system.mem_ctrls2.rdPerTurnAround::1152-1279            1      0.01%     99.99% # Reads before turning the bus around for writes
system.mem_ctrls2.rdPerTurnAround::2816-2943            1      0.01%    100.00% # Reads before turning the bus around for writes
system.mem_ctrls2.rdPerTurnAround::total        16920                       # Reads before turning the bus around for writes
system.mem_ctrls2.wrPerTurnAround::samples        16920                       # Writes before turning the bus around for reads
system.mem_ctrls2.wrPerTurnAround::mean      7.183747                       # Writes before turning the bus around for reads
system.mem_ctrls2.wrPerTurnAround::gmean     6.495575                       # Writes before turning the bus around for reads
system.mem_ctrls2.wrPerTurnAround::stdev     3.664483                       # Writes before turning the bus around for reads
system.mem_ctrls2.wrPerTurnAround::4-7          12107     71.55%     71.55% # Writes before turning the bus around for reads
system.mem_ctrls2.wrPerTurnAround::8-11          1865     11.02%     82.58% # Writes before turning the bus around for reads
system.mem_ctrls2.wrPerTurnAround::12-15         1916     11.32%     93.90% # Writes before turning the bus around for reads
system.mem_ctrls2.wrPerTurnAround::16-19         1032      6.10%    100.00% # Writes before turning the bus around for reads
system.mem_ctrls2.wrPerTurnAround::total        16920                       # Writes before turning the bus around for reads
system.mem_ctrls2.totQLat                 36553371513                       # Total ticks spent queuing
system.mem_ctrls2.totMemAccLat            40170621513                       # Total ticks spent from burst creation until serviced by the DRAM
system.mem_ctrls2.totBusLat                 964600000                       # Total ticks spent in databus transfers
system.mem_ctrls2.avgQLat                   189474.25                       # Average queueing delay per DRAM burst
system.mem_ctrls2.avgBusLat                   5000.00                       # Average bus latency per DRAM burst
system.mem_ctrls2.avgMemAccLat              208224.25                       # Average memory access latency per DRAM burst
system.mem_ctrls2.avgRdBW                      217.19                       # Average DRAM read bandwidth in MiByte/s
system.mem_ctrls2.avgWrBW                      136.84                       # Average achieved write bandwidth in MiByte/s
system.mem_ctrls2.avgRdBWSys                   217.21                       # Average system read bandwidth in MiByte/s
system.mem_ctrls2.avgWrBWSys                   136.84                       # Average system write bandwidth in MiByte/s
system.mem_ctrls2.peakBW                     12800.00                       # Theoretical peak bandwidth in MiByte/s
system.mem_ctrls2.busUtil                        2.77                       # Data bus utilization in percentage
system.mem_ctrls2.busUtilRead                    1.70                       # Data bus utilization in percentage for reads
system.mem_ctrls2.busUtilWrite                   1.07                       # Data bus utilization in percentage for writes
system.mem_ctrls2.avgRdQLen                      1.66                       # Average read queue length when enqueuing
system.mem_ctrls2.avgWrQLen                      2.94                       # Average write queue length when enqueuing
system.mem_ctrls2.readRowHits                  142216                       # Number of row buffer hits during reads
system.mem_ctrls2.writeRowHits                  73786                       # Number of row buffer hits during writes
system.mem_ctrls2.readRowHitRate                73.72                       # Row buffer hit rate for reads
system.mem_ctrls2.writeRowHitRate               60.70                       # Row buffer hit rate for writes
system.mem_ctrls2.avgGap                    180765.08                       # Average gap between requests
system.mem_ctrls2.pageHitRate                   68.69                       # Row buffer hit rate, read and write combined
system.mem_ctrls2.memoryStateTime::IDLE   11875377750                       # Time in different power states
system.mem_ctrls2.memoryStateTime::REF     1898260000                       # Time in different power states
system.mem_ctrls2.memoryStateTime::PRE_PDN            0                       # Time in different power states
system.mem_ctrls2.memoryStateTime::ACT    43074141750                       # Time in different power states
system.mem_ctrls2.memoryStateTime::ACT_PDN            0                       # Time in different power states
system.mem_ctrls2.actEnergy::0              374477040                       # Energy for activate commands per rank (pJ)
system.mem_ctrls2.actEnergy::1              369850320                       # Energy for activate commands per rank (pJ)
system.mem_ctrls2.preEnergy::0              204327750                       # Energy for precharge commands per rank (pJ)
system.mem_ctrls2.preEnergy::1              201803250                       # Energy for precharge commands per rank (pJ)
system.mem_ctrls2.readEnergy::0             752481600                       # Energy for read commands per rank (pJ)
system.mem_ctrls2.readEnergy::1             752232000                       # Energy for read commands per rank (pJ)
system.mem_ctrls2.writeEnergy::0            393394320                       # Energy for write commands per rank (pJ)
system.mem_ctrls2.writeEnergy::1            394191360                       # Energy for write commands per rank (pJ)
system.mem_ctrls2.refreshEnergy::0         3712996560                       # Energy for refresh commands per rank (pJ)
system.mem_ctrls2.refreshEnergy::1         3712996560                       # Energy for refresh commands per rank (pJ)
system.mem_ctrls2.actBackEnergy::0        21915672075                       # Energy for active background per rank (pJ)
system.mem_ctrls2.actBackEnergy::1        21416515380                       # Energy for active background per rank (pJ)
system.mem_ctrls2.preBackEnergy::0        14884386000                       # Energy for precharge background per rank (pJ)
system.mem_ctrls2.preBackEnergy::1        15322242750                       # Energy for precharge background per rank (pJ)
system.mem_ctrls2.totalEnergy::0          42237735345                       # Total energy per rank (pJ)
system.mem_ctrls2.totalEnergy::1          42169831620                       # Total energy per rank (pJ)
system.mem_ctrls2.averagePower::0          742.997274                       # Core power per rank (mW)
system.mem_ctrls2.averagePower::1          741.802790                       # Core power per rank (mW)
system.mem_ctrls3.bytes_read::ruby.dir_cntrl3     12328640                       # Number of bytes read from this memory
system.mem_ctrls3.bytes_read::total          12328640                       # Number of bytes read from this memory
system.mem_ctrls3.bytes_written::ruby.dir_cntrl3      7777920                       # Number of bytes written to this memory
system.mem_ctrls3.bytes_written::total        7777920                       # Number of bytes written to this memory
system.mem_ctrls3.num_reads::ruby.dir_cntrl3       192635                       # Number of read requests responded to by this memory
system.mem_ctrls3.num_reads::total             192635                       # Number of read requests responded to by this memory
system.mem_ctrls3.num_writes::ruby.dir_cntrl3       121530                       # Number of write requests responded to by this memory
system.mem_ctrls3.num_writes::total            121530                       # Number of write requests responded to by this memory
system.mem_ctrls3.bw_read::ruby.dir_cntrl3    216864690                       # Total read bandwidth from this memory (bytes/s)
system.mem_ctrls3.bw_read::total            216864690                       # Total read bandwidth from this memory (bytes/s)
system.mem_ctrls3.bw_write::ruby.dir_cntrl3    136816081                       # Write bandwidth from this memory (bytes/s)
system.mem_ctrls3.bw_write::total           136816081                       # Write bandwidth from this memory (bytes/s)
system.mem_ctrls3.bw_total::ruby.dir_cntrl3    353680772                       # Total bandwidth to/from this memory (bytes/s)
system.mem_ctrls3.bw_total::total           353680772                       # Total bandwidth to/from this memory (bytes/s)
system.mem_ctrls3.readReqs                     192635                       # Number of read requests accepted
system.mem_ctrls3.writeReqs                    121530                       # Number of write requests accepted
system.mem_ctrls3.readBursts                   192635                       # Number of DRAM read bursts, including those serviced by the write queue
system.mem_ctrls3.writeBursts                  121530                       # Number of DRAM write bursts, including those merged in the write queue
system.mem_ctrls3.bytesReadDRAM              12327488                       # Total number of bytes read from DRAM
system.mem_ctrls3.bytesReadWrQ                   1152                       # Total number of bytes read from write queue
system.mem_ctrls3.bytesWritten                7777856                       # Total number of bytes written to DRAM
system.mem_ctrls3.bytesReadSys               12328640                       # Total read bytes from the system interface side
system.mem_ctrls3.bytesWrittenSys             7777920                       # Total written bytes from the system interface side
system.mem_ctrls3.servicedByWrQ                    18                       # Number of DRAM read bursts serviced by the write queue
system.mem_ctrls3.mergedWrBursts                    0                       # Number of DRAM write bursts merged with an existing one
system.mem_ctrls3.neitherReadNorWriteReqs            0                       # Number of requests that are neither read nor write
system.mem_ctrls3.perBankRdBursts::0            11816                       # Per bank write bursts
system.mem_ctrls3.perBankRdBursts::1            11990                       # Per bank write bursts
system.mem_ctrls3.perBankRdBursts::2            11660                       # Per bank write bursts
system.mem_ctrls3.perBankRdBursts::3            12159                       # Per bank write bursts
system.mem_ctrls3.perBankRdBursts::4            11946                       # Per bank write bursts
system.mem_ctrls3.perBankRdBursts::5            12024                       # Per bank write bursts
system.mem_ctrls3.perBankRdBursts::6            12298                       # Per bank write bursts
system.mem_ctrls3.perBankRdBursts::7            12308                       # Per bank write bursts
system.mem_ctrls3.perBankRdBursts::8            12201                       # Per bank write bursts
system.mem_ctrls3.perBankRdBursts::9            12422                       # Per bank write bursts
system.mem_ctrls3.perBankRdBursts::10           12152                       # Per bank write bursts
system.mem_ctrls3.perBankRdBursts::11           12440                       # Per bank write bursts
system.mem_ctrls3.perBankRdBursts::12           11970                       # Per bank write bursts
system.mem_ctrls3.perBankRdBursts::13           11723                       # Per bank write bursts
system.mem_ctrls3.perBankRdBursts::14           11934                       # Per bank write bursts
system.mem_ctrls3.perBankRdBursts::15           11574                       # Per bank write bursts
system.mem_ctrls3.perBankWrBursts::0             7540                       # Per bank write bursts
system.mem_ctrls3.perBankWrBursts::1             7402                       # Per bank write bursts
system.mem_ctrls3.perBankWrBursts::2             7536                       # Per bank write bursts
system.mem_ctrls3.perBankWrBursts::3             7630                       # Per bank write bursts
system.mem_ctrls3.perBankWrBursts::4             7509                       # Per bank write bursts
system.mem_ctrls3.perBankWrBursts::5             7629                       # Per bank write bursts
system.mem_ctrls3.perBankWrBursts::6             7683                       # Per bank write bursts
system.mem_ctrls3.perBankWrBursts::7             7753                       # Per bank write bursts
system.mem_ctrls3.perBankWrBursts::8             7656                       # Per bank write bursts
system.mem_ctrls3.perBankWrBursts::9             7836                       # Per bank write bursts
system.mem_ctrls3.perBankWrBursts::10            7610                       # Per bank write bursts
system.mem_ctrls3.perBankWrBursts::11            7663                       # Per bank write bursts
system.mem_ctrls3.perBankWrBursts::12            7545                       # Per bank write bursts
system.mem_ctrls3.perBankWrBursts::13            7514                       # Per bank write bursts
system.mem_ctrls3.perBankWrBursts::14            7621                       # Per bank write bursts
system.mem_ctrls3.perBankWrBursts::15            7402                       # Per bank write bursts
system.mem_ctrls3.numRdRetry                    92794                       # Number of times read queue was full causing retry
system.mem_ctrls3.numWrRetry                     8053                       # Number of times write queue was full causing retry
system.mem_ctrls3.totGap                  56848425500                       # Total gap between requests
system.mem_ctrls3.readPktSize::0                    0                       # Read request sizes (log2)
system.mem_ctrls3.readPktSize::1                    0                       # Read request sizes (log2)
system.mem_ctrls3.readPktSize::2                    0                       # Read request sizes (log2)
system.mem_ctrls3.readPktSize::3                    0                       # Read request sizes (log2)
system.mem_ctrls3.readPktSize::4                    0                       # Read request sizes (log2)
system.mem_ctrls3.readPktSize::5                    0                       # Read request sizes (log2)
system.mem_ctrls3.readPktSize::6               192635                       # Read request sizes (log2)
system.mem_ctrls3.writePktSize::0                   0                       # Write request sizes (log2)
system.mem_ctrls3.writePktSize::1                   0                       # Write request sizes (log2)
system.mem_ctrls3.writePktSize::2                   0                       # Write request sizes (log2)
system.mem_ctrls3.writePktSize::3                   0                       # Write request sizes (log2)
system.mem_ctrls3.writePktSize::4                   0                       # Write request sizes (log2)
system.mem_ctrls3.writePktSize::5                   0                       # Write request sizes (log2)
system.mem_ctrls3.writePktSize::6              121530                       # Write request sizes (log2)
system.mem_ctrls3.rdQLenPdf::0                  68440                       # What read queue length does an incoming req see
system.mem_ctrls3.rdQLenPdf::1                   2502                       # What read queue length does an incoming req see
system.mem_ctrls3.rdQLenPdf::2                   1658                       # What read queue length does an incoming req see
system.mem_ctrls3.rdQLenPdf::3                   1385                       # What read queue length does an incoming req see
system.mem_ctrls3.rdQLenPdf::4                   1211                       # What read queue length does an incoming req see
system.mem_ctrls3.rdQLenPdf::5                   1121                       # What read queue length does an incoming req see
system.mem_ctrls3.rdQLenPdf::6                   1034                       # What read queue length does an incoming req see
system.mem_ctrls3.rdQLenPdf::7                    968                       # What read queue length does an incoming req see
system.mem_ctrls3.rdQLenPdf::8                    958                       # What read queue length does an incoming req see
system.mem_ctrls3.rdQLenPdf::9                    898                       # What read queue length does an incoming req see
system.mem_ctrls3.rdQLenPdf::10                   876                       # What read queue length does an incoming req see
system.mem_ctrls3.rdQLenPdf::11                   871                       # What read queue length does an incoming req see
system.mem_ctrls3.rdQLenPdf::12                   812                       # What read queue length does an incoming req see
system.mem_ctrls3.rdQLenPdf::13                   768                       # What read queue length does an incoming req see
system.mem_ctrls3.rdQLenPdf::14                   742                       # What read queue length does an incoming req see
system.mem_ctrls3.rdQLenPdf::15                   743                       # What read queue length does an incoming req see
system.mem_ctrls3.rdQLenPdf::16                   708                       # What read queue length does an incoming req see
system.mem_ctrls3.rdQLenPdf::17                   723                       # What read queue length does an incoming req see
system.mem_ctrls3.rdQLenPdf::18                   752                       # What read queue length does an incoming req see
system.mem_ctrls3.rdQLenPdf::19                   733                       # What read queue length does an incoming req see
system.mem_ctrls3.rdQLenPdf::20                   748                       # What read queue length does an incoming req see
system.mem_ctrls3.rdQLenPdf::21                   721                       # What read queue length does an incoming req see
system.mem_ctrls3.rdQLenPdf::22                   751                       # What read queue length does an incoming req see
system.mem_ctrls3.rdQLenPdf::23                   756                       # What read queue length does an incoming req see
system.mem_ctrls3.rdQLenPdf::24                   740                       # What read queue length does an incoming req see
[...]
system.ruby.L2Cache_Controller.ISS.Mem_Data::total       285594                      
system.ruby.L2Cache_Controller.IS.Mem_Data |         447      3.31%      3.31% |         422      3.13%      6.44% |         414      3.07%      9.51% |         404      2.99%     12.50% |         410      3.04%     15.54% |         401      2.97%     18.51% |         414      3.07%     21.58% |         417      3.09%     24.67% |         407      3.02%     27.68% |         417      3.09%     30.77% |         443      3.28%     34.06% |         436      3.23%     37.29% |         449      3.33%     40.62% |         426      3.16%     43.77% |         446      3.30%     47.08% |         441      3.27%     50.34% |         450      3.33%     53.68% |         440      3.26%     56.94% |         434      3.22%     60.16% |         404      2.99%     63.15% |         384      2.85%     65.99% |         408      3.02%     69.02% |         404      2.99%     72.01% |         395      2.93%     74.94% |         427      3.16%     78.10% |         447      3.31%     81.42% |         436      3.23%     84.65% |         401      2.97%     87.62% |         416      3.08%     90.70% |         426      3.16%     93.86% |         426      3.16%     97.01% |         403      2.99%    100.00%
system.ruby.L2Cache_Controller.IS.Mem_Data::total        13495                      
system.ruby.L2Cache_Controller.IM.L1_GETX |           1    100.00%    100.00% |           0      0.00%    100.00% |           0      0.00%    100.00% |           0      0.00%    100.00% |           0      0.00%    100.00% |           0      0.00%    100.00% |           0      0.00%    100.00% |           0      0.00%    100.00% |           0      0.00%    100.00% |           0      0.00%    100.00% |           0      0.00%    100.00% |           0      0.00%    100.00% |           0      0.00%    100.00% |           0      0.00%    100.00% |           0      0.00%    100.00% |           0      0.00%    100.00% |           0      0.00%    100.00% |           0      0.00%    100.00% |           0      0.00%    100.00% |           0      0.00%    100.00% |           0      0.00%    100.00% |           0      0.00%    100.00% |           0      0.00%    100.00% |           0      0.00%    100.00% |           0      0.00%    100.00% |           0      0.00%    100.00% |           0      0.00%    100.00% |           0      0.00%    100.00% |           0      0.00%    100.00% |           0      0.00%    100.00% |           0      0.00%    100.00% |           0      0.00%    100.00%
system.ruby.L2Cache_Controller.IM.L1_GETX::total            1                      
system.ruby.L2Cache_Controller.IM.Mem_Data |       15012      3.15%      3.15% |       14859      3.12%      6.27% |       14864      3.12%      9.40% |       14867      3.12%     12.52% |       14862      3.12%     15.64% |       14867      3.12%     18.76% |       14870      3.12%     21.89% |       14864      3.12%     25.01% |       14871      3.12%     28.13% |       14876      3.12%     31.26% |       14858      3.12%     34.38% |       14880      3.13%     37.50% |       14868      3.12%     40.63% |       14873      3.12%     43.75% |       14868      3.12%     46.87% |       14861      3.12%     49.99% |       14947      3.14%     53.13% |       14876      3.12%     56.26% |       14876      3.12%     59.38% |       14878      3.12%     62.51% |       14890      3.13%     65.64% |       14898      3.13%     68.76% |       14865      3.12%     71.89% |       14876      3.12%     75.01% |       14887      3.13%     78.14% |       14876      3.12%     81.26% |       14881      3.13%     84.39% |       14871      3.12%     87.51% |       14864      3.12%     90.63% |       14863      3.12%     93.76% |       14871      3.12%     96.88% |       14858      3.12%    100.00%
system.ruby.L2Cache_Controller.IM.Mem_Data::total       476097                      
system.ruby.L2Cache_Controller.SS_MB.Exclusive_Unblock |           3      6.12%      6.12% |           6     12.24%     18.37% |           2      4.08%     22.45% |           3      6.12%     28.57% |           0      0.00%     28.57% |           0      0.00%     28.57% |           0      0.00%     28.57% |           0      0.00%     28.57% |           1      2.04%     30.61% |           0      0.00%     30.61% |           0      0.00%     30.61% |           1      2.04%     32.65% |           4      8.16%     40.82% |           0      0.00%     40.82% |           2      4.08%     44.90% |           0      0.00%     44.90% |           1      2.04%     46.94% |           2      4.08%     51.02% |          13     26.53%     77.55% |           3      6.12%     83.67% |           0      0.00%     83.67% |           0      0.00%     83.67% |           0      0.00%     83.67% |           0      0.00%     83.67% |           1      2.04%     85.71% |           0      0.00%     85.71% |           3      6.12%     91.84% |           4      8.16%    100.00% |           0      0.00%    100.00% |           0      0.00%    100.00% |           0      0.00%    100.00% |           0      0.00%    100.00%
system.ruby.L2Cache_Controller.SS_MB.Exclusive_Unblock::total           49                      
system.ruby.L2Cache_Controller.MT_MB.Exclusive_Unblock |       75577      7.25%      7.25% |       32563      3.12%     10.37% |       29191      2.80%     13.17% |       32113      3.08%     16.26% |       29481      2.83%     19.08% |       29376      2.82%     21.90% |       28824      2.77%     24.67% |       29433      2.82%     27.49% |       30148      2.89%     30.38% |       29743      2.85%     33.24% |       32301      3.10%     36.33% |       30612      2.94%     39.27% |       30271      2.90%     42.18% |       30058      2.88%     45.06% |       29358      2.82%     47.88% |       29958      2.87%     50.75% |       31178      2.99%     53.74% |       30045      2.88%     56.62% |       30684      2.94%     59.57% |       31388      3.01%     62.58% |       31839      3.05%     65.63% |       36750      3.53%     69.16% |       31005      2.97%     72.13% |       30976      2.97%     75.10% |       30980      2.97%     78.08% |       30975      2.97%     81.05% |       30891      2.96%     84.01% |       30608      2.94%     86.95% |       32432      3.11%     90.06% |       31885      3.06%     93.12% |       33885      3.25%     96.37% |       37860      3.63%    100.00%
system.ruby.L2Cache_Controller.MT_MB.Exclusive_Unblock::total      1042388                      
system.ruby.L2Cache_Controller.MT_IIB.WB_Data |          77     35.00%     35.00% |           1      0.45%     35.45% |           0      0.00%     35.45% |           3      1.36%     36.82% |           3      1.36%     38.18% |           3      1.36%     39.55% |           4      1.82%     41.36% |           3      1.36%     42.73% |           5      2.27%     45.00% |           3      1.36%     46.36% |           2      0.91%     47.27% |           2      0.91%     48.18% |           3      1.36%     49.55% |           2      0.91%     50.45% |           4      1.82%     52.27% |           3      1.36%     53.64% |          73     33.18%     86.82% |           0      0.00%     86.82% |           1      0.45%     87.27% |           0      0.00%     87.27% |           1      0.45%     87.73% |           0      0.00%     87.73% |           1      0.45%     88.18% |           2      0.91%     89.09% |           3      1.36%     90.45% |           5      2.27%     92.73% |           3      1.36%     94.09% |           4      1.82%     95.91% |           3      1.36%     97.27% |           2      0.91%     98.18% |           2      0.91%     99.09% |           2      0.91%    100.00%
system.ruby.L2Cache_Controller.MT_IIB.WB_Data::total          220                      
system.ruby.L2Cache_Controller.MT_IIB.WB_Data_clean |           8     22.86%     22.86% |           0      0.00%     22.86% |           0      0.00%     22.86% |          13     37.14%     60.00% |           0      0.00%     60.00% |           0      0.00%     60.00% |           0      0.00%     60.00% |           0      0.00%     60.00% |           0      0.00%     60.00% |           0      0.00%     60.00% |           0      0.00%     60.00% |           0      0.00%     60.00% |           0      0.00%     60.00% |           0      0.00%     60.00% |           0      0.00%     60.00% |           0      0.00%     60.00% |           0      0.00%     60.00% |           0      0.00%     60.00% |           0      0.00%     60.00% |          12     34.29%     94.29% |           0      0.00%     94.29% |           0      0.00%     94.29% |           0      0.00%     94.29% |           0      0.00%     94.29% |           0      0.00%     94.29% |           0      0.00%     94.29% |           0      0.00%     94.29% |           2      5.71%    100.00% |           0      0.00%    100.00% |           0      0.00%    100.00% |           0      0.00%    100.00% |           0      0.00%    100.00%
system.ruby.L2Cache_Controller.MT_IIB.WB_Data_clean::total           35                      
system.ruby.L2Cache_Controller.MT_IIB.Unblock |           5     25.00%     25.00% |           0      0.00%     25.00% |           0      0.00%     25.00% |           1      5.00%     30.00% |           0      0.00%     30.00% |           0      0.00%     30.00% |           0      0.00%     30.00% |           0      0.00%     30.00% |           0      0.00%     30.00% |           0      0.00%     30.00% |           0      0.00%     30.00% |           0      0.00%     30.00% |           0      0.00%     30.00% |           1      5.00%     35.00% |           0      0.00%     35.00% |           0      0.00%     35.00% |          11     55.00%     90.00% |           0      0.00%     90.00% |           0      0.00%     90.00% |           0      0.00%     90.00% |           0      0.00%     90.00% |           0      0.00%     90.00% |           0      0.00%     90.00% |           0      0.00%     90.00% |           0      0.00%     90.00% |           0      0.00%     90.00% |           1      5.00%     95.00% |           1      5.00%    100.00% |           0      0.00%    100.00% |           0      0.00%    100.00% |           0      0.00%    100.00% |           0      0.00%    100.00%
system.ruby.L2Cache_Controller.MT_IIB.Unblock::total           20                      
system.ruby.L2Cache_Controller.MT_IB.WB_Data |           5     26.32%     26.32% |           0      0.00%     26.32% |           0      0.00%     26.32% |           0      0.00%     26.32% |           0      0.00%     26.32% |           0      0.00%     26.32% |           0      0.00%     26.32% |           0      0.00%     26.32% |           0      0.00%     26.32% |           0      0.00%     26.32% |           0      0.00%     26.32% |           0      0.00%     26.32% |           0      0.00%     26.32% |           1      5.26%     31.58% |           0      0.00%     31.58% |           0      0.00%     31.58% |          11     57.89%     89.47% |           0      0.00%     89.47% |           0      0.00%     89.47% |           0      0.00%     89.47% |           0      0.00%     89.47% |           0      0.00%     89.47% |           0      0.00%     89.47% |           0      0.00%     89.47% |           0      0.00%     89.47% |           0      0.00%     89.47% |           1      5.26%     94.74% |           1      5.26%    100.00% |           0      0.00%    100.00% |           0      0.00%    100.00% |           0      0.00%    100.00% |           0      0.00%    100.00%
system.ruby.L2Cache_Controller.MT_IB.WB_Data::total           19                      
system.ruby.L2Cache_Controller.MT_IB.WB_Data_clean |           0      0.00%      0.00% |           0      0.00%      0.00% |           0      0.00%      0.00% |           1    100.00%    100.00% |           0      0.00%    100.00% |           0      0.00%    100.00% |           0      0.00%    100.00% |           0      0.00%    100.00% |           0      0.00%    100.00% |           0      0.00%    100.00% |           0      0.00%    100.00% |           0      0.00%    100.00% |           0      0.00%    100.00% |           0      0.00%    100.00% |           0      0.00%    100.00% |           0      0.00%    100.00% |           0      0.00%    100.00% |           0      0.00%    100.00% |           0      0.00%    100.00% |           0      0.00%    100.00% |           0      0.00%    100.00% |           0      0.00%    100.00% |           0      0.00%    100.00% |           0      0.00%    100.00% |           0      0.00%    100.00% |           0      0.00%    100.00% |           0      0.00%    100.00% |           0      0.00%    100.00% |           0      0.00%    100.00% |           0      0.00%    100.00% |           0      0.00%    100.00% |           0      0.00%    100.00%
system.ruby.L2Cache_Controller.MT_IB.WB_Data_clean::total            1                      
system.ruby.L2Cache_Controller.MT_SB.Unblock |          85     33.33%     33.33% |           1      0.39%     33.73% |           0      0.00%     33.73% |          16      6.27%     40.00% |           3      1.18%     41.18% |           3      1.18%     42.35% |           4      1.57%     43.92% |           3      1.18%     45.10% |           5      1.96%     47.06% |           3      1.18%     48.24% |           2      0.78%     49.02% |           2      0.78%     49.80% |           3      1.18%     50.98% |           2      0.78%     51.76% |           4      1.57%     53.33% |           3      1.18%     54.51% |          73     28.63%     83.14% |           0      0.00%     83.14% |           1      0.39%     83.53% |          12      4.71%     88.24% |           1      0.39%     88.63% |           0      0.00%     88.63% |           1      0.39%     89.02% |           2      0.78%     89.80% |           3      1.18%     90.98% |           5      1.96%     92.94% |           3      1.18%     94.12% |           6      2.35%     96.47% |           3      1.18%     97.65% |           2      0.78%     98.43% |           2      0.78%     99.22% |           2      0.78%    100.00%
system.ruby.L2Cache_Controller.MT_SB.Unblock::total          255                      
system.ruby.SimicsNetworkPortInterface_Controller.MessageSend |       65290     17.88%     17.88% |      182607     50.00%     67.88% |        5038      1.38%     69.26% |        5202      1.42%     70.68% |        3848      1.05%     71.73% |        6273      1.72%     73.45% |        3837      1.05%     74.50% |        4087      1.12%     75.62% |        3593      0.98%     76.61% |        3734      1.02%     77.63% |        3693      1.01%     78.64% |        3673      1.01%     79.65% |        3959      1.08%     80.73% |        3750      1.03%     81.76% |        3405      0.93%     82.69% |        3598      0.99%     83.67% |        3730      1.02%     84.69% |        4033      1.10%     85.80% |        3877      1.06%     86.86% |        3524      0.96%     87.83% |        3498      0.96%     88.78% |        3660      1.00%     89.79% |        3734      1.02%     90.81% |        3366      0.92%     91.73% |        3652      1.00%     92.73% |        3836      1.05%     93.78% |        3629      0.99%     94.77% |        3431      0.94%     95.71% |        3735      1.02%     96.74% |        3967      1.09%     97.82% |        3926      1.07%     98.90% |        4029      1.10%    100.00%
system.ruby.SimicsNetworkPortInterface_Controller.MessageSend::total       365214                      
system.ruby.SimicsNetworkPortInterface_Controller.MessageRecv |       65290     17.88%     17.88% |      182607     50.00%     67.88% |        5038      1.38%     69.26% |        5202      1.42%     70.68% |        3848      1.05%     71.73% |        6273      1.72%     73.45% |        3837      1.05%     74.50% |        4087      1.12%     75.62% |        3593      0.98%     76.61% |        3734      1.02%     77.63% |        3693      1.01%     78.64% |        3673      1.01%     79.65% |        3959      1.08%     80.73% |        3750      1.03%     81.76% |        3405      0.93%     82.69% |        3598      0.99%     83.67% |        3730      1.02%     84.69% |        4033      1.10%     85.80% |        3877      1.06%     86.86% |        3524      0.96%     87.83% |        3498      0.96%     88.78% |        3660      1.00%     89.79% |        3734      1.02%     90.81% |        3366      0.92%     91.73% |        3652      1.00%     92.73% |        3836      1.05%     93.78% |        3629      0.99%     94.77% |        3431      0.94%     95.71% |        3735      1.02%     96.74% |        3967      1.09%     97.82% |        3926      1.07%     98.90% |        4029      1.10%    100.00%
system.ruby.SimicsNetworkPortInterface_Controller.MessageRecv::total       365214                      
system.ruby.SimicsNetworkPortInterface_Controller.A.MessageSend |       65290     17.88%     17.88% |      182607     50.00%     67.88% |        5038      1.38%     69.26% |        5202      1.42%     70.68% |        3848      1.05%     71.73% |        6273      1.72%     73.45% |        3837      1.05%     74.50% |        4087      1.12%     75.62% |        3593      0.98%     76.61% |        3734      1.02%     77.63% |        3693      1.01%     78.64% |        3673      1.01%     79.65% |        3959      1.08%     80.73% |        3750      1.03%     81.76% |        3405      0.93%     82.69% |        3598      0.99%     83.67% |        3730      1.02%     84.69% |        4033      1.10%     85.80% |        3877      1.06%     86.86% |        3524      0.96%     87.83% |        3498      0.96%     88.78% |        3660      1.00%     89.79% |        3734      1.02%     90.81% |        3366      0.92%     91.73% |        3652      1.00%     92.73% |        3836      1.05%     93.78% |        3629      0.99%     94.77% |        3431      0.94%     95.71% |        3735      1.02%     96.74% |        3967      1.09%     97.82% |        3926      1.07%     98.90% |        4029      1.10%    100.00%
system.ruby.SimicsNetworkPortInterface_Controller.A.MessageSend::total       365214                      
system.ruby.SimicsNetworkPortInterface_Controller.A.MessageRecv |       65290     17.88%     17.88% |      182607     50.00%     67.88% |        5038      1.38%     69.26% |        5202      1.42%     70.68% |        3848      1.05%     71.73% |        6273      1.72%     73.45% |        3837      1.05%     74.50% |        4087      1.12%     75.62% |        3593      0.98%     76.61% |        3734      1.02%     77.63% |        3693      1.01%     78.64% |        3673      1.01%     79.65% |        3959      1.08%     80.73% |        3750      1.03%     81.76% |        3405      0.93%     82.69% |        3598      0.99%     83.67% |        3730      1.02%     84.69% |        4033      1.10%     85.80% |        3877      1.06%     86.86% |        3524      0.96%     87.83% |        3498      0.96%     88.78% |        3660      1.00%     89.79% |        3734      1.02%     90.81% |        3366      0.92%     91.73% |        3652      1.00%     92.73% |        3836      1.05%     93.78% |        3629      0.99%     94.77% |        3431      0.94%     95.71% |        3735      1.02%     96.74% |        3967      1.09%     97.82% |        3926      1.07%     98.90% |        4029      1.10%    100.00%
system.ruby.SimicsNetworkPortInterface_Controller.A.MessageRecv::total       365214                      
system.switch_cpus.kern.inst.arm                    0                       # number of arm instructions executed
system.switch_cpus.kern.inst.quiesce                0                       # number of quiesce instructions executed

---------- End Simulation Statistics   ----------
