
---------- Begin Simulation Statistics ----------
sim_seconds                                  0.119633                       # Number of seconds simulated
sim_ticks                                119632878000                       # Number of ticks simulated
final_tick                               5295800956500                       # Number of ticks from beginning of simulation (restored from checkpoints and never reset)
sim_freq                                 1000000000000                       # Frequency of simulated ticks
host_inst_rate                                   6927                       # Simulator instruction rate (inst/s)
host_op_rate                                    12268                       # Simulator op (including micro ops) rate (op/s)
host_tick_rate                               15175468                       # Simulator tick rate (ticks/s)
host_mem_usage                                6092556                       # Number of bytes of host memory used
host_seconds                                  7883.31                       # Real time elapsed on the host
sim_insts                                    54607861                       # Number of instructions simulated
sim_ops                                      96712019                       # Number of ops (including micro ops) simulated
system.voltage_domain.voltage                       1                       # Voltage in Volts
system.clk_domain.clock                           500                       # Clock period in ticks
system.mem_ctrls0.bytes_read::ruby.dir_cntrl0     42438656                       # Number of bytes read from this memory
system.mem_ctrls0.bytes_read::total          42438656                       # Number of bytes read from this memory
system.mem_ctrls0.bytes_written::ruby.dir_cntrl0     20033216                       # Number of bytes written to this memory
system.mem_ctrls0.bytes_written::total       20033216                       # Number of bytes written to this memory
system.mem_ctrls0.num_reads::ruby.dir_cntrl0       663104                       # Number of read requests responded to by this memory
system.mem_ctrls0.num_reads::total             663104                       # Number of read requests responded to by this memory
system.mem_ctrls0.num_writes::ruby.dir_cntrl0       313019                       # Number of write requests responded to by this memory
system.mem_ctrls0.num_writes::total            313019                       # Number of write requests responded to by this memory
system.mem_ctrls0.bw_read::ruby.dir_cntrl0    354740743                       # Total read bandwidth from this memory (bytes/s)
system.mem_ctrls0.bw_read::total            354740743                       # Total read bandwidth from this memory (bytes/s)
system.mem_ctrls0.bw_write::ruby.dir_cntrl0    167455772                       # Write bandwidth from this memory (bytes/s)
system.mem_ctrls0.bw_write::total           167455772                       # Write bandwidth from this memory (bytes/s)
system.mem_ctrls0.bw_total::ruby.dir_cntrl0    522196515                       # Total bandwidth to/from this memory (bytes/s)
system.mem_ctrls0.bw_total::total           522196515                       # Total bandwidth to/from this memory (bytes/s)
system.mem_ctrls0.readReqs                     663104                       # Number of read requests accepted
system.mem_ctrls0.writeReqs                    313019                       # Number of write requests accepted
system.mem_ctrls0.readBursts                   663104                       # Number of DRAM read bursts, including those serviced by the write queue
system.mem_ctrls0.writeBursts                  313019                       # Number of DRAM write bursts, including those merged in the write queue
system.mem_ctrls0.bytesReadDRAM              42419776                       # Total number of bytes read from DRAM
system.mem_ctrls0.bytesReadWrQ                  18880                       # Total number of bytes read from write queue
system.mem_ctrls0.bytesWritten               20033088                       # Total number of bytes written to DRAM
system.mem_ctrls0.bytesReadSys               42438656                       # Total read bytes from the system interface side
system.mem_ctrls0.bytesWrittenSys            20033216                       # Total written bytes from the system interface side
system.mem_ctrls0.servicedByWrQ                   295                       # Number of DRAM read bursts serviced by the write queue
system.mem_ctrls0.mergedWrBursts                    0                       # Number of DRAM write bursts merged with an existing one
system.mem_ctrls0.neitherReadNorWriteReqs            0                       # Number of requests that are neither read nor write
system.mem_ctrls0.perBankRdBursts::0            41869                       # Per bank write bursts
system.mem_ctrls0.perBankRdBursts::1            41367                       # Per bank write bursts
system.mem_ctrls0.perBankRdBursts::2            40963                       # Per bank write bursts
system.mem_ctrls0.perBankRdBursts::3            41391                       # Per bank write bursts
system.mem_ctrls0.perBankRdBursts::4            40829                       # Per bank write bursts
system.mem_ctrls0.perBankRdBursts::5            41500                       # Per bank write bursts
system.mem_ctrls0.perBankRdBursts::6            42068                       # Per bank write bursts
system.mem_ctrls0.perBankRdBursts::7            42086                       # Per bank write bursts
system.mem_ctrls0.perBankRdBursts::8            41468                       # Per bank write bursts
system.mem_ctrls0.perBankRdBursts::9            41114                       # Per bank write bursts
system.mem_ctrls0.perBankRdBursts::10           41015                       # Per bank write bursts
system.mem_ctrls0.perBankRdBursts::11           41480                       # Per bank write bursts
system.mem_ctrls0.perBankRdBursts::12           40781                       # Per bank write bursts
system.mem_ctrls0.perBankRdBursts::13           41271                       # Per bank write bursts
system.mem_ctrls0.perBankRdBursts::14           41683                       # Per bank write bursts
system.mem_ctrls0.perBankRdBursts::15           41924                       # Per bank write bursts
system.mem_ctrls0.perBankWrBursts::0            19622                       # Per bank write bursts
system.mem_ctrls0.perBankWrBursts::1            19475                       # Per bank write bursts
system.mem_ctrls0.perBankWrBursts::2            19517                       # Per bank write bursts
system.mem_ctrls0.perBankWrBursts::3            19587                       # Per bank write bursts
system.mem_ctrls0.perBankWrBursts::4            19398                       # Per bank write bursts
system.mem_ctrls0.perBankWrBursts::5            19554                       # Per bank write bursts
system.mem_ctrls0.perBankWrBursts::6            19807                       # Per bank write bursts
system.mem_ctrls0.perBankWrBursts::7            19906                       # Per bank write bursts
system.mem_ctrls0.perBankWrBursts::8            19570                       # Per bank write bursts
system.mem_ctrls0.perBankWrBursts::9            19495                       # Per bank write bursts
system.mem_ctrls0.perBankWrBursts::10           19397                       # Per bank write bursts
system.mem_ctrls0.perBankWrBursts::11           19519                       # Per bank write bursts
system.mem_ctrls0.perBankWrBursts::12           19370                       # Per bank write bursts
system.mem_ctrls0.perBankWrBursts::13           19463                       # Per bank write bursts
system.mem_ctrls0.perBankWrBursts::14           19703                       # Per bank write bursts
system.mem_ctrls0.perBankWrBursts::15           19634                       # Per bank write bursts
system.mem_ctrls0.numRdRetry                    66054                       # Number of times read queue was full causing retry
system.mem_ctrls0.numWrRetry                    11624                       # Number of times write queue was full causing retry
system.mem_ctrls0.totGap                 119632378000                       # Total gap between requests
system.mem_ctrls0.readPktSize::0                    0                       # Read request sizes (log2)
system.mem_ctrls0.readPktSize::1                    0                       # Read request sizes (log2)
system.mem_ctrls0.readPktSize::2                    0                       # Read request sizes (log2)
system.mem_ctrls0.readPktSize::3                    0                       # Read request sizes (log2)
system.mem_ctrls0.readPktSize::4                    0                       # Read request sizes (log2)
system.mem_ctrls0.readPktSize::5                    0                       # Read request sizes (log2)
system.mem_ctrls0.readPktSize::6               663104                       # Read request sizes (log2)
system.mem_ctrls0.writePktSize::0                   0                       # Write request sizes (log2)
system.mem_ctrls0.writePktSize::1                   0                       # Write request sizes (log2)
system.mem_ctrls0.writePktSize::2                   0                       # Write request sizes (log2)
system.mem_ctrls0.writePktSize::3                   0                       # Write request sizes (log2)
system.mem_ctrls0.writePktSize::4                   0                       # Write request sizes (log2)
system.mem_ctrls0.writePktSize::5                   0                       # Write request sizes (log2)
system.mem_ctrls0.writePktSize::6              313019                       # Write request sizes (log2)
system.mem_ctrls0.rdQLenPdf::0                 178063                       # What read queue length does an incoming req see
system.mem_ctrls0.rdQLenPdf::1                  23137                       # What read queue length does an incoming req see
system.mem_ctrls0.rdQLenPdf::2                  21859                       # What read queue length does an incoming req see
system.mem_ctrls0.rdQLenPdf::3                  22540                       # What read queue length does an incoming req see
system.mem_ctrls0.rdQLenPdf::4                  22714                       # What read queue length does an incoming req see
system.mem_ctrls0.rdQLenPdf::5                  22785                       # What read queue length does an incoming req see
system.mem_ctrls0.rdQLenPdf::6                  22518                       # What read queue length does an incoming req see
system.mem_ctrls0.rdQLenPdf::7                  22113                       # What read queue length does an incoming req see
system.mem_ctrls0.rdQLenPdf::8                  20762                       # What read queue length does an incoming req see
system.mem_ctrls0.rdQLenPdf::9                  20131                       # What read queue length does an incoming req see
system.mem_ctrls0.rdQLenPdf::10                 18898                       # What read queue length does an incoming req see
system.mem_ctrls0.rdQLenPdf::11                 17578                       # What read queue length does an incoming req see
system.mem_ctrls0.rdQLenPdf::12                 16467                       # What read queue length does an incoming req see
system.mem_ctrls0.rdQLenPdf::13                 15297                       # What read queue length does an incoming req see
system.mem_ctrls0.rdQLenPdf::14                 13982                       # What read queue length does an incoming req see
system.mem_ctrls0.rdQLenPdf::15                 13030                       # What read queue length does an incoming req see
system.mem_ctrls0.rdQLenPdf::16                 12245                       # What read queue length does an incoming req see
system.mem_ctrls0.rdQLenPdf::17                 11538                       # What read queue length does an incoming req see
system.mem_ctrls0.rdQLenPdf::18                 10616                       # What read queue length does an incoming req see
system.mem_ctrls0.rdQLenPdf::19                  9971                       # What read queue length does an incoming req see
system.mem_ctrls0.rdQLenPdf::20                  9031                       # What read queue length does an incoming req see
system.mem_ctrls0.rdQLenPdf::21                  8449                       # What read queue length does an incoming req see
system.mem_ctrls0.rdQLenPdf::22                  7963                       # What read queue length does an incoming req see
system.mem_ctrls0.rdQLenPdf::23                  7349                       # What read queue length does an incoming req see
system.mem_ctrls0.rdQLenPdf::24                  6957                       # What read queue length does an incoming req see
system.mem_ctrls0.rdQLenPdf::25                  6673                       # What read queue length does an incoming req see
system.mem_ctrls0.rdQLenPdf::26                  6173                       # What read queue length does an incoming req see
system.mem_ctrls0.rdQLenPdf::27                  5810                       # What read queue length does an incoming req see
system.mem_ctrls0.rdQLenPdf::28                  5593                       # What read queue length does an incoming req see
system.mem_ctrls0.rdQLenPdf::29                  5396                       # What read queue length does an incoming req see
system.mem_ctrls0.rdQLenPdf::30                  5400                       # What read queue length does an incoming req see
system.mem_ctrls0.rdQLenPdf::31                 71771                       # What read queue length does an incoming req see
system.mem_ctrls0.wrQLenPdf::0                  45160                       # What write queue length does an incoming req see
system.mem_ctrls0.wrQLenPdf::1                  50444                       # What write queue length does an incoming req see
system.mem_ctrls0.wrQLenPdf::2                  53084                       # What write queue length does an incoming req see
system.mem_ctrls0.wrQLenPdf::3                  54147                       # What write queue length does an incoming req see
system.mem_ctrls0.wrQLenPdf::4                  54461                       # What write queue length does an incoming req see
system.mem_ctrls0.wrQLenPdf::5                  17417                       # What write queue length does an incoming req see
system.mem_ctrls0.wrQLenPdf::6                  16463                       # What write queue length does an incoming req see
system.mem_ctrls0.wrQLenPdf::7                  21843                       # What write queue length does an incoming req see
system.mem_ctrls0.bytesPerActivate::samples       316253                       # Bytes accessed per row activation
system.mem_ctrls0.bytesPerActivate::mean   197.474503                       # Bytes accessed per row activation
system.mem_ctrls0.bytesPerActivate::gmean   151.282782                       # Bytes accessed per row activation
system.mem_ctrls0.bytesPerActivate::stdev   149.461099                       # Bytes accessed per row activation
system.mem_ctrls0.bytesPerActivate::0-127       106115     33.55%     33.55% # Bytes accessed per row activation
system.mem_ctrls0.bytesPerActivate::128-255        97935     30.97%     64.52% # Bytes accessed per row activation
system.mem_ctrls0.bytesPerActivate::256-383        73442     23.22%     87.74% # Bytes accessed per row activation
system.mem_ctrls0.bytesPerActivate::384-511        19368      6.12%     93.87% # Bytes accessed per row activation
system.mem_ctrls0.bytesPerActivate::512-639        14292      4.52%     98.39% # Bytes accessed per row activation
system.mem_ctrls0.bytesPerActivate::640-767         2762      0.87%     99.26% # Bytes accessed per row activation
system.mem_ctrls0.bytesPerActivate::768-895         1197      0.38%     99.64% # Bytes accessed per row activation
system.mem_ctrls0.bytesPerActivate::896-1023          739      0.23%     99.87% # Bytes accessed per row activation
system.mem_ctrls0.bytesPerActivate::1024-1151          403      0.13%    100.00% # Bytes accessed per row activation
system.mem_ctrls0.bytesPerActivate::total       316253                       # Bytes accessed per row activation
system.mem_ctrls0.rdPerTurnAround::samples        46965                       # Reads before turning the bus around for writes
system.mem_ctrls0.rdPerTurnAround::mean     14.112744                       # Reads before turning the bus around for writes
system.mem_ctrls0.rdPerTurnAround::stdev    28.086227                       # Reads before turning the bus around for writes
system.mem_ctrls0.rdPerTurnAround::0-127        46708     99.45%     99.45% # Reads before turning the bus around for writes
system.mem_ctrls0.rdPerTurnAround::128-255          217      0.46%     99.91% # Reads before turning the bus around for writes
system.mem_ctrls0.rdPerTurnAround::256-383           33      0.07%     99.99% # Reads before turning the bus around for writes
system.mem_ctrls0.rdPerTurnAround::384-511            5      0.01%    100.00% # Reads before turning the bus around for writes
system.mem_ctrls0.rdPerTurnAround::512-639            1      0.00%    100.00% # Reads before turning the bus around for writes
system.mem_ctrls0.rdPerTurnAround::3968-4095            1      0.00%    100.00% # Reads before turning the bus around for writes
system.mem_ctrls0.rdPerTurnAround::total        46965                       # Reads before turning the bus around for writes
system.mem_ctrls0.wrPerTurnAround::samples        46965                       # Writes before turning the bus around for reads
system.mem_ctrls0.wrPerTurnAround::mean      6.664899                       # Writes before turning the bus around for reads
system.mem_ctrls0.wrPerTurnAround::gmean     6.162952                       # Writes before turning the bus around for reads
system.mem_ctrls0.wrPerTurnAround::stdev     3.136159                       # Writes before turning the bus around for reads
system.mem_ctrls0.wrPerTurnAround::4-7          36316     77.33%     77.33% # Writes before turning the bus around for reads
system.mem_ctrls0.wrPerTurnAround::8-11          5492     11.69%     89.02% # Writes before turning the bus around for reads
system.mem_ctrls0.wrPerTurnAround::12-15         2900      6.17%     95.19% # Writes before turning the bus around for reads
system.mem_ctrls0.wrPerTurnAround::16-19         2257      4.81%    100.00% # Writes before turning the bus around for reads
system.mem_ctrls0.wrPerTurnAround::total        46965                       # Writes before turning the bus around for reads
system.mem_ctrls0.totQLat                 75799343374                       # Total ticks spent queuing
system.mem_ctrls0.totMemAccLat            88227012124                       # Total ticks spent from burst creation until serviced by the DRAM
system.mem_ctrls0.totBusLat                3314045000                       # Total ticks spent in databus transfers
system.mem_ctrls0.avgQLat                   114360.76                       # Average queueing delay per DRAM burst
system.mem_ctrls0.avgBusLat                   5000.00                       # Average bus latency per DRAM burst
system.mem_ctrls0.avgMemAccLat              133110.76                       # Average memory access latency per DRAM burst
system.mem_ctrls0.avgRdBW                      354.58                       # Average DRAM read bandwidth in MiByte/s
system.mem_ctrls0.avgWrBW                      167.45                       # Average achieved write bandwidth in MiByte/s
system.mem_ctrls0.avgRdBWSys                   354.74                       # Average system read bandwidth in MiByte/s
system.mem_ctrls0.avgWrBWSys                   167.46                       # Average system write bandwidth in MiByte/s
system.mem_ctrls0.peakBW                     12800.00                       # Theoretical peak bandwidth in MiByte/s
system.mem_ctrls0.busUtil                        4.08                       # Data bus utilization in percentage
system.mem_ctrls0.busUtilRead                    2.77                       # Data bus utilization in percentage for reads
system.mem_ctrls0.busUtilWrite                   1.31                       # Data bus utilization in percentage for writes
system.mem_ctrls0.avgRdQLen                      1.77                       # Average read queue length when enqueuing
system.mem_ctrls0.avgWrQLen                      3.04                       # Average write queue length when enqueuing
system.mem_ctrls0.readRowHits                  489058                       # Number of row buffer hits during reads
system.mem_ctrls0.writeRowHits                 170504                       # Number of row buffer hits during writes
system.mem_ctrls0.readRowHitRate                73.79                       # Row buffer hit rate for reads
system.mem_ctrls0.writeRowHitRate               54.47                       # Row buffer hit rate for writes
system.mem_ctrls0.avgGap                    122558.71                       # Average gap between requests
system.mem_ctrls0.pageHitRate                   67.59                       # Row buffer hit rate, read and write combined
system.mem_ctrls0.memoryStateTime::IDLE   20214216500                       # Time in different power states
system.mem_ctrls0.memoryStateTime::REF     3994640000                       # Time in different power states
system.mem_ctrls0.memoryStateTime::PRE_PDN            0                       # Time in different power states
system.mem_ctrls0.memoryStateTime::ACT    95420280000                       # Time in different power states
system.mem_ctrls0.memoryStateTime::ACT_PDN            0                       # Time in different power states
system.mem_ctrls0.actEnergy::0             1201752720                       # Energy for activate commands per rank (pJ)
system.mem_ctrls0.actEnergy::1             1189059480                       # Energy for activate commands per rank (pJ)
system.mem_ctrls0.preEnergy::0              655718250                       # Energy for precharge commands per rank (pJ)
system.mem_ctrls0.preEnergy::1              648792375                       # Energy for precharge commands per rank (pJ)
system.mem_ctrls0.readEnergy::0            2590107000                       # Energy for read commands per rank (pJ)
system.mem_ctrls0.readEnergy::1            2579616000                       # Energy for read commands per rank (pJ)
system.mem_ctrls0.writeEnergy::0           1016472240                       # Energy for write commands per rank (pJ)
system.mem_ctrls0.writeEnergy::1           1011845520                       # Energy for write commands per rank (pJ)
system.mem_ctrls0.refreshEnergy::0         7813515840                       # Energy for refresh commands per rank (pJ)
system.mem_ctrls0.refreshEnergy::1         7813515840                       # Energy for refresh commands per rank (pJ)
system.mem_ctrls0.actBackEnergy::0        49318324605                       # Energy for active background per rank (pJ)
system.mem_ctrls0.actBackEnergy::1        48843278910                       # Energy for active background per rank (pJ)
system.mem_ctrls0.preBackEnergy::0        28515234750                       # Energy for precharge background per rank (pJ)
system.mem_ctrls0.preBackEnergy::1        28931941500                       # Energy for precharge background per rank (pJ)
system.mem_ctrls0.totalEnergy::0          91111125405                       # Total energy per rank (pJ)
system.mem_ctrls0.totalEnergy::1          91018049625                       # Total energy per rank (pJ)
system.mem_ctrls0.averagePower::0          761.619096                       # Core power per rank (mW)
system.mem_ctrls0.averagePower::1          760.841054                       # Core power per rank (mW)
system.mem_ctrls1.bytes_read::ruby.dir_cntrl1     41903232                       # Number of bytes read from this memory
system.mem_ctrls1.bytes_read::total          41903232                       # Number of bytes read from this memory
system.mem_ctrls1.bytes_written::ruby.dir_cntrl1     19479744                       # Number of bytes written to this memory
system.mem_ctrls1.bytes_written::total       19479744                       # Number of bytes written to this memory
system.mem_ctrls1.num_reads::ruby.dir_cntrl1       654738                       # Number of read requests responded to by this memory
system.mem_ctrls1.num_reads::total             654738                       # Number of read requests responded to by this memory
system.mem_ctrls1.num_writes::ruby.dir_cntrl1       304371                       # Number of write requests responded to by this memory
system.mem_ctrls1.num_writes::total            304371                       # Number of write requests responded to by this memory
system.mem_ctrls1.bw_read::ruby.dir_cntrl1    350265184                       # Total read bandwidth from this memory (bytes/s)
system.mem_ctrls1.bw_read::total            350265184                       # Total read bandwidth from this memory (bytes/s)
system.mem_ctrls1.bw_write::ruby.dir_cntrl1    162829352                       # Write bandwidth from this memory (bytes/s)
system.mem_ctrls1.bw_write::total           162829352                       # Write bandwidth from this memory (bytes/s)
system.mem_ctrls1.bw_total::ruby.dir_cntrl1    513094536                       # Total bandwidth to/from this memory (bytes/s)
system.mem_ctrls1.bw_total::total           513094536                       # Total bandwidth to/from this memory (bytes/s)
system.mem_ctrls1.readReqs                     654738                       # Number of read requests accepted
system.mem_ctrls1.writeReqs                    304371                       # Number of write requests accepted
system.mem_ctrls1.readBursts                   654738                       # Number of DRAM read bursts, including those serviced by the write queue
system.mem_ctrls1.writeBursts                  304371                       # Number of DRAM write bursts, including those merged in the write queue
system.mem_ctrls1.bytesReadDRAM              41882560                       # Total number of bytes read from DRAM
system.mem_ctrls1.bytesReadWrQ                  20672                       # Total number of bytes read from write queue
system.mem_ctrls1.bytesWritten               19479552                       # Total number of bytes written to DRAM
system.mem_ctrls1.bytesReadSys               41903232                       # Total read bytes from the system interface side
system.mem_ctrls1.bytesWrittenSys            19479744                       # Total written bytes from the system interface side
system.mem_ctrls1.servicedByWrQ                   323                       # Number of DRAM read bursts serviced by the write queue
system.mem_ctrls1.mergedWrBursts                    0                       # Number of DRAM write bursts merged with an existing one
system.mem_ctrls1.neitherReadNorWriteReqs            0                       # Number of requests that are neither read nor write
system.mem_ctrls1.perBankRdBursts::0            41276                       # Per bank write bursts
system.mem_ctrls1.perBankRdBursts::1            40993                       # Per bank write bursts
system.mem_ctrls1.perBankRdBursts::2            40381                       # Per bank write bursts
system.mem_ctrls1.perBankRdBursts::3            40622                       # Per bank write bursts
system.mem_ctrls1.perBankRdBursts::4            40518                       # Per bank write bursts
system.mem_ctrls1.perBankRdBursts::5            40928                       # Per bank write bursts
system.mem_ctrls1.perBankRdBursts::6            42015                       # Per bank write bursts
system.mem_ctrls1.perBankRdBursts::7            41473                       # Per bank write bursts
system.mem_ctrls1.perBankRdBursts::8            40818                       # Per bank write bursts
system.mem_ctrls1.perBankRdBursts::9            40704                       # Per bank write bursts
system.mem_ctrls1.perBankRdBursts::10           40268                       # Per bank write bursts
system.mem_ctrls1.perBankRdBursts::11           40763                       # Per bank write bursts
system.mem_ctrls1.perBankRdBursts::12           40350                       # Per bank write bursts
system.mem_ctrls1.perBankRdBursts::13           40828                       # Per bank write bursts
system.mem_ctrls1.perBankRdBursts::14           41270                       # Per bank write bursts
system.mem_ctrls1.perBankRdBursts::15           41208                       # Per bank write bursts
system.mem_ctrls1.perBankWrBursts::0            19055                       # Per bank write bursts
system.mem_ctrls1.perBankWrBursts::1            18942                       # Per bank write bursts
system.mem_ctrls1.perBankWrBursts::2            18978                       # Per bank write bursts
system.mem_ctrls1.perBankWrBursts::3            18971                       # Per bank write bursts
system.mem_ctrls1.perBankWrBursts::4            18950                       # Per bank write bursts
system.mem_ctrls1.perBankWrBursts::5            19109                       # Per bank write bursts
system.mem_ctrls1.perBankWrBursts::6            19196                       # Per bank write bursts
system.mem_ctrls1.perBankWrBursts::7            19414                       # Per bank write bursts
system.mem_ctrls1.perBankWrBursts::8            18957                       # Per bank write bursts
system.mem_ctrls1.perBankWrBursts::9            18992                       # Per bank write bursts
system.mem_ctrls1.perBankWrBursts::10           18834                       # Per bank write bursts
system.mem_ctrls1.perBankWrBursts::11           18894                       # Per bank write bursts
system.mem_ctrls1.perBankWrBursts::12           18909                       # Per bank write bursts
system.mem_ctrls1.perBankWrBursts::13           19002                       # Per bank write bursts
system.mem_ctrls1.perBankWrBursts::14           19028                       # Per bank write bursts
system.mem_ctrls1.perBankWrBursts::15           19137                       # Per bank write bursts
system.mem_ctrls1.numRdRetry                    62987                       # Number of times read queue was full causing retry
system.mem_ctrls1.numWrRetry                    11184                       # Number of times write queue was full causing retry
system.mem_ctrls1.totGap                 119632126000                       # Total gap between requests
system.mem_ctrls1.readPktSize::0                    0                       # Read request sizes (log2)
system.mem_ctrls1.readPktSize::1                    0                       # Read request sizes (log2)
system.mem_ctrls1.readPktSize::2                    0                       # Read request sizes (log2)
system.mem_ctrls1.readPktSize::3                    0                       # Read request sizes (log2)
system.mem_ctrls1.readPktSize::4                    0                       # Read request sizes (log2)
system.mem_ctrls1.readPktSize::5                    0                       # Read request sizes (log2)
system.mem_ctrls1.readPktSize::6               654738                       # Read request sizes (log2)
system.mem_ctrls1.writePktSize::0                   0                       # Write request sizes (log2)
system.mem_ctrls1.writePktSize::1                   0                       # Write request sizes (log2)
system.mem_ctrls1.writePktSize::2                   0                       # Write request sizes (log2)
system.mem_ctrls1.writePktSize::3                   0                       # Write request sizes (log2)
system.mem_ctrls1.writePktSize::4                   0                       # Write request sizes (log2)
system.mem_ctrls1.writePktSize::5                   0                       # Write request sizes (log2)
system.mem_ctrls1.writePktSize::6              304371                       # Write request sizes (log2)
system.mem_ctrls1.rdQLenPdf::0                 170903                       # What read queue length does an incoming req see
system.mem_ctrls1.rdQLenPdf::1                  21883                       # What read queue length does an incoming req see
system.mem_ctrls1.rdQLenPdf::2                  22046                       # What read queue length does an incoming req see
system.mem_ctrls1.rdQLenPdf::3                  22792                       # What read queue length does an incoming req see
system.mem_ctrls1.rdQLenPdf::4                  22967                       # What read queue length does an incoming req see
system.mem_ctrls1.rdQLenPdf::5                  22951                       # What read queue length does an incoming req see
system.mem_ctrls1.rdQLenPdf::6                  22529                       # What read queue length does an incoming req see
system.mem_ctrls1.rdQLenPdf::7                  22051                       # What read queue length does an incoming req see
system.mem_ctrls1.rdQLenPdf::8                  21280                       # What read queue length does an incoming req see
system.mem_ctrls1.rdQLenPdf::9                  20021                       # What read queue length does an incoming req see
system.mem_ctrls1.rdQLenPdf::10                 19055                       # What read queue length does an incoming req see
system.mem_ctrls1.rdQLenPdf::11                 17651                       # What read queue length does an incoming req see
system.mem_ctrls1.rdQLenPdf::12                 16543                       # What read queue length does an incoming req see
system.mem_ctrls1.rdQLenPdf::13                 15221                       # What read queue length does an incoming req see
system.mem_ctrls1.rdQLenPdf::14                 14222                       # What read queue length does an incoming req see
system.mem_ctrls1.rdQLenPdf::15                 13244                       # What read queue length does an incoming req see
system.mem_ctrls1.rdQLenPdf::16                 12207                       # What read queue length does an incoming req see
system.mem_ctrls1.rdQLenPdf::17                 11360                       # What read queue length does an incoming req see
system.mem_ctrls1.rdQLenPdf::18                 10608                       # What read queue length does an incoming req see
system.mem_ctrls1.rdQLenPdf::19                  9804                       # What read queue length does an incoming req see
system.mem_ctrls1.rdQLenPdf::20                  9157                       # What read queue length does an incoming req see
system.mem_ctrls1.rdQLenPdf::21                  8644                       # What read queue length does an incoming req see
system.mem_ctrls1.rdQLenPdf::22                  8047                       # What read queue length does an incoming req see
system.mem_ctrls1.rdQLenPdf::23                  7790                       # What read queue length does an incoming req see
system.mem_ctrls1.rdQLenPdf::24                  7180                       # What read queue length does an incoming req see
system.mem_ctrls1.rdQLenPdf::25                  6758                       # What read queue length does an incoming req see
system.mem_ctrls1.rdQLenPdf::26                  6329                       # What read queue length does an incoming req see
system.mem_ctrls1.rdQLenPdf::27                  6063                       # What read queue length does an incoming req see
system.mem_ctrls1.rdQLenPdf::28                  5835                       # What read queue length does an incoming req see
system.mem_ctrls1.rdQLenPdf::29                  5550                       # What read queue length does an incoming req see
system.mem_ctrls1.rdQLenPdf::30                  5259                       # What read queue length does an incoming req see
system.mem_ctrls1.rdQLenPdf::31                 68465                       # What read queue length does an incoming req see
system.mem_ctrls1.wrQLenPdf::0                  43518                       # What write queue length does an incoming req see
system.mem_ctrls1.wrQLenPdf::1                  48824                       # What write queue length does an incoming req see
system.mem_ctrls1.wrQLenPdf::2                  51578                       # What write queue length does an incoming req see
system.mem_ctrls1.wrQLenPdf::3                  52808                       # What write queue length does an incoming req see
system.mem_ctrls1.wrQLenPdf::4                  53018                       # What write queue length does an incoming req see
system.mem_ctrls1.wrQLenPdf::5                  17320                       # What write queue length does an incoming req see
system.mem_ctrls1.wrQLenPdf::6                  16219                       # What write queue length does an incoming req see
system.mem_ctrls1.wrQLenPdf::7                  21086                       # What write queue length does an incoming req see
system.mem_ctrls1.bytesPerActivate::samples       303129                       # Bytes accessed per row activation
system.mem_ctrls1.bytesPerActivate::mean   202.426083                       # Bytes accessed per row activation
system.mem_ctrls1.bytesPerActivate::gmean   154.976113                       # Bytes accessed per row activation
system.mem_ctrls1.bytesPerActivate::stdev   151.648890                       # Bytes accessed per row activation
system.mem_ctrls1.bytesPerActivate::0-127        99334     32.77%     32.77% # Bytes accessed per row activation
system.mem_ctrls1.bytesPerActivate::128-255        91437     30.16%     62.93% # Bytes accessed per row activation
system.mem_ctrls1.bytesPerActivate::256-383        73360     24.20%     87.13% # Bytes accessed per row activation
system.mem_ctrls1.bytesPerActivate::384-511        19324      6.37%     93.51% # Bytes accessed per row activation
system.mem_ctrls1.bytesPerActivate::512-639        14386      4.75%     98.26% # Bytes accessed per row activation
system.mem_ctrls1.bytesPerActivate::640-767         2823      0.93%     99.19% # Bytes accessed per row activation
system.mem_ctrls1.bytesPerActivate::768-895         1296      0.43%     99.61% # Bytes accessed per row activation
system.mem_ctrls1.bytesPerActivate::896-1023          777      0.26%     99.87% # Bytes accessed per row activation
system.mem_ctrls1.bytesPerActivate::1024-1151          392      0.13%    100.00% # Bytes accessed per row activation
system.mem_ctrls1.bytesPerActivate::total       303129                       # Bytes accessed per row activation
system.mem_ctrls1.rdPerTurnAround::samples        45334                       # Reads before turning the bus around for writes
system.mem_ctrls1.rdPerTurnAround::mean     14.435302                       # Reads before turning the bus around for writes
system.mem_ctrls1.rdPerTurnAround::stdev    25.960583                       # Reads before turning the bus around for writes
system.mem_ctrls1.rdPerTurnAround::0-127        45103     99.49%     99.49% # Reads before turning the bus around for writes
system.mem_ctrls1.rdPerTurnAround::128-255          197      0.43%     99.93% # Reads before turning the bus around for writes
system.mem_ctrls1.rdPerTurnAround::256-383           25      0.06%     99.98% # Reads before turning the bus around for writes
system.mem_ctrls1.rdPerTurnAround::384-511            4      0.01%     99.99% # Reads before turning the bus around for writes
system.mem_ctrls1.rdPerTurnAround::512-639            2      0.00%     99.99% # Reads before turning the bus around for writes
system.mem_ctrls1.rdPerTurnAround::640-767            1      0.00%    100.00% # Reads before turning the bus around for writes
system.mem_ctrls1.rdPerTurnAround::1152-1279            1      0.00%    100.00% # Reads before turning the bus around for writes
system.mem_ctrls1.rdPerTurnAround::2816-2943            1      0.00%    100.00% # Reads before turning the bus around for writes
system.mem_ctrls1.rdPerTurnAround::total        45334                       # Reads before turning the bus around for writes
system.mem_ctrls1.wrPerTurnAround::samples        45334                       # Writes before turning the bus around for reads
system.mem_ctrls1.wrPerTurnAround::mean      6.713901                       # Writes before turning the bus around for reads
system.mem_ctrls1.wrPerTurnAround::gmean     6.198335                       # Writes before turning the bus around for reads
system.mem_ctrls1.wrPerTurnAround::stdev     3.180506                       # Writes before turning the bus around for reads
system.mem_ctrls1.wrPerTurnAround::4-7          34745     76.64%     76.64% # Writes before turning the bus around for reads
system.mem_ctrls1.wrPerTurnAround::8-11          5518     12.17%     88.81% # Writes before turning the bus around for reads
system.mem_ctrls1.wrPerTurnAround::12-15         2751      6.07%     94.88% # Writes before turning the bus around for reads
system.mem_ctrls1.wrPerTurnAround::16-19         2320      5.12%    100.00% # Writes before turning the bus around for reads
system.mem_ctrls1.wrPerTurnAround::total        45334                       # Writes before turning the bus around for reads
system.mem_ctrls1.totQLat                 74915477309                       # Total ticks spent queuing
system.mem_ctrls1.totMemAccLat            87185758559                       # Total ticks spent from burst creation until serviced by the DRAM
system.mem_ctrls1.totBusLat                3272075000                       # Total ticks spent in databus transfers
system.mem_ctrls1.avgQLat                   114477.02                       # Average queueing delay per DRAM burst
system.mem_ctrls1.avgBusLat                   5000.00                       # Average bus latency per DRAM burst
system.mem_ctrls1.avgMemAccLat              133227.02                       # Average memory access latency per DRAM burst
system.mem_ctrls1.avgRdBW                      350.09                       # Average DRAM read bandwidth in MiByte/s
system.mem_ctrls1.avgWrBW                      162.83                       # Average achieved write bandwidth in MiByte/s
system.mem_ctrls1.avgRdBWSys                   350.27                       # Average system read bandwidth in MiByte/s
system.mem_ctrls1.avgWrBWSys                   162.83                       # Average system write bandwidth in MiByte/s
system.mem_ctrls1.peakBW                     12800.00                       # Theoretical peak bandwidth in MiByte/s
system.mem_ctrls1.busUtil                        4.01                       # Data bus utilization in percentage
system.mem_ctrls1.busUtilRead                    2.74                       # Data bus utilization in percentage for reads
system.mem_ctrls1.busUtilWrite                   1.27                       # Data bus utilization in percentage for writes
system.mem_ctrls1.avgRdQLen                      1.76                       # Average read queue length when enqueuing
system.mem_ctrls1.avgWrQLen                      3.03                       # Average write queue length when enqueuing
system.mem_ctrls1.readRowHits                  486218                       # Number of row buffer hits during reads
system.mem_ctrls1.writeRowHits                 169428                       # Number of row buffer hits during writes
system.mem_ctrls1.readRowHitRate                74.30                       # Row buffer hit rate for reads
system.mem_ctrls1.writeRowHitRate               55.66                       # Row buffer hit rate for writes
system.mem_ctrls1.avgGap                    124732.57                       # Average gap between requests
system.mem_ctrls1.pageHitRate                   68.38                       # Row buffer hit rate, read and write combined
system.mem_ctrls1.memoryStateTime::IDLE   20699153750                       # Time in different power states
system.mem_ctrls1.memoryStateTime::REF     3994640000                       # Time in different power states
system.mem_ctrls1.memoryStateTime::PRE_PDN            0                       # Time in different power states
system.mem_ctrls1.memoryStateTime::ACT    94934425000                       # Time in different power states
system.mem_ctrls1.memoryStateTime::ACT_PDN            0                       # Time in different power states
system.mem_ctrls1.actEnergy::0             1156498560                       # Energy for activate commands per rank (pJ)
system.mem_ctrls1.actEnergy::1             1135103760                       # Energy for activate commands per rank (pJ)
system.mem_ctrls1.preEnergy::0              631026000                       # Energy for precharge commands per rank (pJ)
system.mem_ctrls1.preEnergy::1              619352250                       # Energy for precharge commands per rank (pJ)
system.mem_ctrls1.readEnergy::0            2559944400                       # Energy for read commands per rank (pJ)
system.mem_ctrls1.readEnergy::1            2544313200                       # Energy for read commands per rank (pJ)
system.mem_ctrls1.writeEnergy::0            988932240                       # Energy for write commands per rank (pJ)
system.mem_ctrls1.writeEnergy::1            983340000                       # Energy for write commands per rank (pJ)
system.mem_ctrls1.refreshEnergy::0         7813515840                       # Energy for refresh commands per rank (pJ)
system.mem_ctrls1.refreshEnergy::1         7813515840                       # Energy for refresh commands per rank (pJ)
system.mem_ctrls1.actBackEnergy::0        48108665475                       # Energy for active background per rank (pJ)
system.mem_ctrls1.actBackEnergy::1        47884481055                       # Energy for active background per rank (pJ)
system.mem_ctrls1.preBackEnergy::0        29576339250                       # Energy for precharge background per rank (pJ)
system.mem_ctrls1.preBackEnergy::1        29772992250                       # Energy for precharge background per rank (pJ)
system.mem_ctrls1.totalEnergy::0          90834921765                       # Total energy per rank (pJ)
system.mem_ctrls1.totalEnergy::1          90753098355                       # Total energy per rank (pJ)
system.mem_ctrls1.averagePower::0          759.310246                       # Core power per rank (mW)
system.mem_ctrls1.averagePower::1          758.626265                       # Core power per rank (mW)
system.mem_ctrls2.bytes_read::ruby.dir_cntrl2     41862784                       # Number of bytes read from this memory
system.mem_ctrls2.bytes_read::total          41862784                       # Number of bytes read from this memory
system.mem_ctrls2.bytes_written::ruby.dir_cntrl2     19469440                       # Number of bytes written to this memory
system.mem_ctrls2.bytes_written::total       19469440                       # Number of bytes written to this memory
system.mem_ctrls2.num_reads::ruby.dir_cntrl2       654106                       # Number of read requests responded to by this memory
system.mem_ctrls2.num_reads::total             654106                       # Number of read requests responded to by this memory
system.mem_ctrls2.num_writes::ruby.dir_cntrl2       304210                       # Number of write requests responded to by this memory
system.mem_ctrls2.num_writes::total            304210                       # Number of write requests responded to by this memory
system.mem_ctrls2.bw_read::ruby.dir_cntrl2    349927083                       # Total read bandwidth from this memory (bytes/s)
system.mem_ctrls2.bw_read::total            349927083                       # Total read bandwidth from this memory (bytes/s)
system.mem_ctrls2.bw_write::ruby.dir_cntrl2    162743222                       # Write bandwidth from this memory (bytes/s)
system.mem_ctrls2.bw_write::total           162743222                       # Write bandwidth from this memory (bytes/s)
system.mem_ctrls2.bw_total::ruby.dir_cntrl2    512670305                       # Total bandwidth to/from this memory (bytes/s)
system.mem_ctrls2.bw_total::total           512670305                       # Total bandwidth to/from this memory (bytes/s)
system.mem_ctrls2.readReqs                     654106                       # Number of read requests accepted
system.mem_ctrls2.writeReqs                    304210                       # Number of write requests accepted
system.mem_ctrls2.readBursts                   654106                       # Number of DRAM read bursts, including those serviced by the write queue
system.mem_ctrls2.writeBursts                  304210                       # Number of DRAM write bursts, including those merged in the write queue
system.mem_ctrls2.bytesReadDRAM              41846080                       # Total number of bytes read from DRAM
system.mem_ctrls2.bytesReadWrQ                  16704                       # Total number of bytes read from write queue
system.mem_ctrls2.bytesWritten               19469248                       # Total number of bytes written to DRAM
system.mem_ctrls2.bytesReadSys               41862784                       # Total read bytes from the system interface side
system.mem_ctrls2.bytesWrittenSys            19469440                       # Total written bytes from the system interface side
system.mem_ctrls2.servicedByWrQ                   261                       # Number of DRAM read bursts serviced by the write queue
system.mem_ctrls2.mergedWrBursts                    0                       # Number of DRAM write bursts merged with an existing one
system.mem_ctrls2.neitherReadNorWriteReqs            0                       # Number of requests that are neither read nor write
system.mem_ctrls2.perBankRdBursts::0            41110                       # Per bank write bursts
system.mem_ctrls2.perBankRdBursts::1            40931                       # Per bank write bursts
system.mem_ctrls2.perBankRdBursts::2            40634                       # Per bank write bursts
system.mem_ctrls2.perBankRdBursts::3            40521                       # Per bank write bursts
system.mem_ctrls2.perBankRdBursts::4            40624                       # Per bank write bursts
system.mem_ctrls2.perBankRdBursts::5            40736                       # Per bank write bursts
system.mem_ctrls2.perBankRdBursts::6            42002                       # Per bank write bursts
system.mem_ctrls2.perBankRdBursts::7            41241                       # Per bank write bursts
system.mem_ctrls2.perBankRdBursts::8            40740                       # Per bank write bursts
system.mem_ctrls2.perBankRdBursts::9            40655                       # Per bank write bursts
system.mem_ctrls2.perBankRdBursts::10           40526                       # Per bank write bursts
system.mem_ctrls2.perBankRdBursts::11           40696                       # Per bank write bursts
system.mem_ctrls2.perBankRdBursts::12           40497                       # Per bank write bursts
system.mem_ctrls2.perBankRdBursts::13           40521                       # Per bank write bursts
system.mem_ctrls2.perBankRdBursts::14           41366                       # Per bank write bursts
system.mem_ctrls2.perBankRdBursts::15           41045                       # Per bank write bursts
system.mem_ctrls2.perBankWrBursts::0            19060                       # Per bank write bursts
system.mem_ctrls2.perBankWrBursts::1            18980                       # Per bank write bursts
system.mem_ctrls2.perBankWrBursts::2            18921                       # Per bank write bursts
system.mem_ctrls2.perBankWrBursts::3            18930                       # Per bank write bursts
system.mem_ctrls2.perBankWrBursts::4            18990                       # Per bank write bursts
system.mem_ctrls2.perBankWrBursts::5            19053                       # Per bank write bursts
system.mem_ctrls2.perBankWrBursts::6            19230                       # Per bank write bursts
system.mem_ctrls2.perBankWrBursts::7            19326                       # Per bank write bursts
system.mem_ctrls2.perBankWrBursts::8            18999                       # Per bank write bursts
system.mem_ctrls2.perBankWrBursts::9            19015                       # Per bank write bursts
system.mem_ctrls2.perBankWrBursts::10           18777                       # Per bank write bursts
system.mem_ctrls2.perBankWrBursts::11           18900                       # Per bank write bursts
system.mem_ctrls2.perBankWrBursts::12           18918                       # Per bank write bursts
system.mem_ctrls2.perBankWrBursts::13           18946                       # Per bank write bursts
system.mem_ctrls2.perBankWrBursts::14           19093                       # Per bank write bursts
system.mem_ctrls2.perBankWrBursts::15           19069                       # Per bank write bursts
system.mem_ctrls2.numRdRetry                    60567                       # Number of times read queue was full causing retry
system.mem_ctrls2.numWrRetry                    12020                       # Number of times write queue was full causing retry
system.mem_ctrls2.totGap                 119632834000                       # Total gap between requests
system.mem_ctrls2.readPktSize::0                    0                       # Read request sizes (log2)
system.mem_ctrls2.readPktSize::1                    0                       # Read request sizes (log2)
system.mem_ctrls2.readPktSize::2                    0                       # Read request sizes (log2)
system.mem_ctrls2.readPktSize::3                    0                       # Read request sizes (log2)
system.mem_ctrls2.readPktSize::4                    0                       # Read request sizes (log2)
system.mem_ctrls2.readPktSize::5                    0                       # Read request sizes (log2)
system.mem_ctrls2.readPktSize::6               654106                       # Read request sizes (log2)
system.mem_ctrls2.writePktSize::0                   0                       # Write request sizes (log2)
system.mem_ctrls2.writePktSize::1                   0                       # Write request sizes (log2)
system.mem_ctrls2.writePktSize::2                   0                       # Write request sizes (log2)
system.mem_ctrls2.writePktSize::3                   0                       # Write request sizes (log2)
system.mem_ctrls2.writePktSize::4                   0                       # Write request sizes (log2)
system.mem_ctrls2.writePktSize::5                   0                       # Write request sizes (log2)
system.mem_ctrls2.writePktSize::6              304210                       # Write request sizes (log2)
system.mem_ctrls2.rdQLenPdf::0                 171028                       # What read queue length does an incoming req see
system.mem_ctrls2.rdQLenPdf::1                  21815                       # What read queue length does an incoming req see
system.mem_ctrls2.rdQLenPdf::2                  21960                       # What read queue length does an incoming req see
system.mem_ctrls2.rdQLenPdf::3                  22603                       # What read queue length does an incoming req see
system.mem_ctrls2.rdQLenPdf::4                  23049                       # What read queue length does an incoming req see
system.mem_ctrls2.rdQLenPdf::5                  23190                       # What read queue length does an incoming req see
system.mem_ctrls2.rdQLenPdf::6                  22760                       # What read queue length does an incoming req see
system.mem_ctrls2.rdQLenPdf::7                  22232                       # What read queue length does an incoming req see
system.mem_ctrls2.rdQLenPdf::8                  21326                       # What read queue length does an incoming req see
system.mem_ctrls2.rdQLenPdf::9                  20563                       # What read queue length does an incoming req see
system.mem_ctrls2.rdQLenPdf::10                 19397                       # What read queue length does an incoming req see
system.mem_ctrls2.rdQLenPdf::11                 18200                       # What read queue length does an incoming req see
system.mem_ctrls2.rdQLenPdf::12                 16981                       # What read queue length does an incoming req see
system.mem_ctrls2.rdQLenPdf::13                 15499                       # What read queue length does an incoming req see
system.mem_ctrls2.rdQLenPdf::14                 14290                       # What read queue length does an incoming req see
system.mem_ctrls2.rdQLenPdf::15                 13534                       # What read queue length does an incoming req see
system.mem_ctrls2.rdQLenPdf::16                 12471                       # What read queue length does an incoming req see
system.mem_ctrls2.rdQLenPdf::17                 11580                       # What read queue length does an incoming req see
system.mem_ctrls2.rdQLenPdf::18                 10549                       # What read queue length does an incoming req see
system.mem_ctrls2.rdQLenPdf::19                  9815                       # What read queue length does an incoming req see
system.mem_ctrls2.rdQLenPdf::20                  9095                       # What read queue length does an incoming req see
system.mem_ctrls2.rdQLenPdf::21                  8490                       # What read queue length does an incoming req see
system.mem_ctrls2.rdQLenPdf::22                  7894                       # What read queue length does an incoming req see
system.mem_ctrls2.rdQLenPdf::23                  7351                       # What read queue length does an incoming req see
system.mem_ctrls2.rdQLenPdf::24                  7061                       # What read queue length does an incoming req see
system.mem_ctrls2.rdQLenPdf::25                  6595                       # What read queue length does an incoming req see
system.mem_ctrls2.rdQLenPdf::26                  6178                       # What read queue length does an incoming req see
system.mem_ctrls2.rdQLenPdf::27                  5823                       # What read queue length does an incoming req see
system.mem_ctrls2.rdQLenPdf::28                  5726                       # What read queue length does an incoming req see
system.mem_ctrls2.rdQLenPdf::29                  5515                       # What read queue length does an incoming req see
system.mem_ctrls2.rdQLenPdf::30                  5402                       # What read queue length does an incoming req see
system.mem_ctrls2.rdQLenPdf::31                 65873                       # What read queue length does an incoming req see
system.mem_ctrls2.wrQLenPdf::0                  43521                       # What write queue length does an incoming req see
system.mem_ctrls2.wrQLenPdf::1                  48784                       # What write queue length does an incoming req see
system.mem_ctrls2.wrQLenPdf::2                  51380                       # What write queue length does an incoming req see
system.mem_ctrls2.wrQLenPdf::3                  52606                       # What write queue length does an incoming req see
system.mem_ctrls2.wrQLenPdf::4                  52763                       # What write queue length does an incoming req see
system.mem_ctrls2.wrQLenPdf::5                  17218                       # What write queue length does an incoming req see
system.mem_ctrls2.wrQLenPdf::6                  16113                       # What write queue length does an incoming req see
system.mem_ctrls2.wrQLenPdf::7                  21825                       # What write queue length does an incoming req see
system.mem_ctrls2.bytesPerActivate::samples       301572                       # Bytes accessed per row activation
system.mem_ctrls2.bytesPerActivate::mean   203.316913                       # Bytes accessed per row activation
system.mem_ctrls2.bytesPerActivate::gmean   155.868943                       # Bytes accessed per row activation
system.mem_ctrls2.bytesPerActivate::stdev   151.600480                       # Bytes accessed per row activation
system.mem_ctrls2.bytesPerActivate::0-127        97747     32.41%     32.41% # Bytes accessed per row activation
system.mem_ctrls2.bytesPerActivate::128-255        91005     30.18%     62.59% # Bytes accessed per row activation
system.mem_ctrls2.bytesPerActivate::256-383        73901     24.51%     87.09% # Bytes accessed per row activation
system.mem_ctrls2.bytesPerActivate::384-511        19316      6.41%     93.50% # Bytes accessed per row activation
system.mem_ctrls2.bytesPerActivate::512-639        14338      4.75%     98.25% # Bytes accessed per row activation
system.mem_ctrls2.bytesPerActivate::640-767         2807      0.93%     99.18% # Bytes accessed per row activation
system.mem_ctrls2.bytesPerActivate::768-895         1285      0.43%     99.61% # Bytes accessed per row activation
system.mem_ctrls2.bytesPerActivate::896-1023          783      0.26%     99.87% # Bytes accessed per row activation
system.mem_ctrls2.bytesPerActivate::1024-1151          390      0.13%    100.00% # Bytes accessed per row activation
system.mem_ctrls2.bytesPerActivate::total       301572                       # Bytes accessed per row activation
system.mem_ctrls2.rdPerTurnAround::samples        45340                       # Reads before turning the bus around for writes
system.mem_ctrls2.rdPerTurnAround::mean     14.420820                       # Reads before turning the bus around for writes
system.mem_ctrls2.rdPerTurnAround::stdev    26.008539                       # Reads before turning the bus around for writes
system.mem_ctrls2.rdPerTurnAround::0-127        45110     99.49%     99.49% # Reads before turning the bus around for writes
system.mem_ctrls2.rdPerTurnAround::128-255          191      0.42%     99.91% # Reads before turning the bus around for writes
system.mem_ctrls2.rdPerTurnAround::256-383           28      0.06%     99.98% # Reads before turning the bus around for writes
system.mem_ctrls2.rdPerTurnAround::384-511            8      0.02%     99.99% # Reads before turning the bus around for writes
system.mem_ctrls2.rdPerTurnAround::640-767            1      0.00%    100.00% # Reads before turning the bus around for writes
system.mem_ctrls2.rdPerTurnAround::1152-1279            1      0.00%    100.00% # Reads before turning the bus around for writes
system.mem_ctrls2.rdPerTurnAround::2816-2943            1      0.00%    100.00% # Reads before turning the bus around for writes
system.mem_ctrls2.rdPerTurnAround::total        45340                       # Reads before turning the bus around for writes
system.mem_ctrls2.wrPerTurnAround::samples        45340                       # Writes before turning the bus around for reads
system.mem_ctrls2.wrPerTurnAround::mean      6.709462                       # Writes before turning the bus around for reads
system.mem_ctrls2.wrPerTurnAround::gmean     6.196987                       # Writes before turning the bus around for reads
system.mem_ctrls2.wrPerTurnAround::stdev     3.166382                       # Writes before turning the bus around for reads
system.mem_ctrls2.wrPerTurnAround::4-7          34682     76.49%     76.49% # Writes before turning the bus around for reads
system.mem_ctrls2.wrPerTurnAround::8-11          5591     12.33%     88.82% # Writes before turning the bus around for reads
system.mem_ctrls2.wrPerTurnAround::12-15         2790      6.15%     94.98% # Writes before turning the bus around for reads
system.mem_ctrls2.wrPerTurnAround::16-19         2277      5.02%    100.00% # Writes before turning the bus around for reads
system.mem_ctrls2.wrPerTurnAround::total        45340                       # Writes before turning the bus around for reads
system.mem_ctrls2.totQLat                 73870030024                       # Total ticks spent queuing
system.mem_ctrls2.totMemAccLat            86129623774                       # Total ticks spent from burst creation until serviced by the DRAM
system.mem_ctrls2.totBusLat                3269225000                       # Total ticks spent in databus transfers
system.mem_ctrls2.avgQLat                   112977.89                       # Average queueing delay per DRAM burst
system.mem_ctrls2.avgBusLat                   5000.00                       # Average bus latency per DRAM burst
system.mem_ctrls2.avgMemAccLat              131727.89                       # Average memory access latency per DRAM burst
system.mem_ctrls2.avgRdBW                      349.79                       # Average DRAM read bandwidth in MiByte/s
system.mem_ctrls2.avgWrBW                      162.74                       # Average achieved write bandwidth in MiByte/s
system.mem_ctrls2.avgRdBWSys                   349.93                       # Average system read bandwidth in MiByte/s
system.mem_ctrls2.avgWrBWSys                   162.74                       # Average system write bandwidth in MiByte/s
system.mem_ctrls2.peakBW                     12800.00                       # Theoretical peak bandwidth in MiByte/s
system.mem_ctrls2.busUtil                        4.00                       # Data bus utilization in percentage
system.mem_ctrls2.busUtilRead                    2.73                       # Data bus utilization in percentage for reads
system.mem_ctrls2.busUtilWrite                   1.27                       # Data bus utilization in percentage for writes
system.mem_ctrls2.avgRdQLen                      1.75                       # Average read queue length when enqueuing
system.mem_ctrls2.avgWrQLen                      3.03                       # Average write queue length when enqueuing
system.mem_ctrls2.readRowHits                  485958                       # Number of row buffer hits during reads
system.mem_ctrls2.writeRowHits                 170515                       # Number of row buffer hits during writes
system.mem_ctrls2.readRowHitRate                74.32                       # Row buffer hit rate for reads
system.mem_ctrls2.writeRowHitRate               56.05                       # Row buffer hit rate for writes
system.mem_ctrls2.avgGap                    124836.52                       # Average gap between requests
system.mem_ctrls2.pageHitRate                   68.52                       # Row buffer hit rate, read and write combined
system.mem_ctrls2.memoryStateTime::IDLE   20829415750                       # Time in different power states
system.mem_ctrls2.memoryStateTime::REF     3994640000                       # Time in different power states
system.mem_ctrls2.memoryStateTime::PRE_PDN            0                       # Time in different power states
system.mem_ctrls2.memoryStateTime::ACT    94804163000                       # Time in different power states
system.mem_ctrls2.memoryStateTime::ACT_PDN            0                       # Time in different power states
system.mem_ctrls2.actEnergy::0             1148303520                       # Energy for activate commands per rank (pJ)
system.mem_ctrls2.actEnergy::1             1131467400                       # Energy for activate commands per rank (pJ)
system.mem_ctrls2.preEnergy::0              626554500                       # Energy for precharge commands per rank (pJ)
system.mem_ctrls2.preEnergy::1              617368125                       # Energy for precharge commands per rank (pJ)
system.mem_ctrls2.readEnergy::0            2556730800                       # Energy for read commands per rank (pJ)
system.mem_ctrls2.readEnergy::1            2543073000                       # Energy for read commands per rank (pJ)
system.mem_ctrls2.writeEnergy::0            988089840                       # Energy for write commands per rank (pJ)
system.mem_ctrls2.writeEnergy::1            983093760                       # Energy for write commands per rank (pJ)
system.mem_ctrls2.refreshEnergy::0         7813515840                       # Energy for refresh commands per rank (pJ)
system.mem_ctrls2.refreshEnergy::1         7813515840                       # Energy for refresh commands per rank (pJ)
system.mem_ctrls2.actBackEnergy::0        48350866455                       # Energy for active background per rank (pJ)
system.mem_ctrls2.actBackEnergy::1        47841633585                       # Energy for active background per rank (pJ)
system.mem_ctrls2.preBackEnergy::0        29363882250                       # Energy for precharge background per rank (pJ)
system.mem_ctrls2.preBackEnergy::1        29810577750                       # Energy for precharge background per rank (pJ)
system.mem_ctrls2.totalEnergy::0          90847943205                       # Total energy per rank (pJ)
system.mem_ctrls2.totalEnergy::1          90740729460                       # Total energy per rank (pJ)
system.mem_ctrls2.averagePower::0          759.419095                       # Core power per rank (mW)
system.mem_ctrls2.averagePower::1          758.522871                       # Core power per rank (mW)
system.mem_ctrls3.bytes_read::ruby.dir_cntrl3     41850368                       # Number of bytes read from this memory
system.mem_ctrls3.bytes_read::total          41850368                       # Number of bytes read from this memory
system.mem_ctrls3.bytes_written::ruby.dir_cntrl3     19461312                       # Number of bytes written to this memory
system.mem_ctrls3.bytes_written::total       19461312                       # Number of bytes written to this memory
system.mem_ctrls3.num_reads::ruby.dir_cntrl3       653912                       # Number of read requests responded to by this memory
system.mem_ctrls3.num_reads::total             653912                       # Number of read requests responded to by this memory
system.mem_ctrls3.num_writes::ruby.dir_cntrl3       304083                       # Number of write requests responded to by this memory
system.mem_ctrls3.num_writes::total            304083                       # Number of write requests responded to by this memory
system.mem_ctrls3.bw_read::ruby.dir_cntrl3    349823299                       # Total read bandwidth from this memory (bytes/s)
system.mem_ctrls3.bw_read::total            349823299                       # Total read bandwidth from this memory (bytes/s)
system.mem_ctrls3.bw_write::ruby.dir_cntrl3    162675281                       # Write bandwidth from this memory (bytes/s)
system.mem_ctrls3.bw_write::total           162675281                       # Write bandwidth from this memory (bytes/s)
system.mem_ctrls3.bw_total::ruby.dir_cntrl3    512498579                       # Total bandwidth to/from this memory (bytes/s)
system.mem_ctrls3.bw_total::total           512498579                       # Total bandwidth to/from this memory (bytes/s)
system.mem_ctrls3.readReqs                     653913                       # Number of read requests accepted
system.mem_ctrls3.writeReqs                    304083                       # Number of write requests accepted
system.mem_ctrls3.readBursts                   653913                       # Number of DRAM read bursts, including those serviced by the write queue
system.mem_ctrls3.writeBursts                  304083                       # Number of DRAM write bursts, including those merged in the write queue
system.mem_ctrls3.bytesReadDRAM              41831424                       # Total number of bytes read from DRAM
system.mem_ctrls3.bytesReadWrQ                  19008                       # Total number of bytes read from write queue
system.mem_ctrls3.bytesWritten               19461248                       # Total number of bytes written to DRAM
system.mem_ctrls3.bytesReadSys               41850432                       # Total read bytes from the system interface side
system.mem_ctrls3.bytesWrittenSys            19461312                       # Total written bytes from the system interface side
system.mem_ctrls3.servicedByWrQ                   297                       # Number of DRAM read bursts serviced by the write queue
system.mem_ctrls3.mergedWrBursts                    0                       # Number of DRAM write bursts merged with an existing one
system.mem_ctrls3.neitherReadNorWriteReqs            0                       # Number of requests that are neither read nor write
system.mem_ctrls3.perBankRdBursts::0            41012                       # Per bank write bursts
system.mem_ctrls3.perBankRdBursts::1            40812                       # Per bank write bursts
system.mem_ctrls3.perBankRdBursts::2            40533                       # Per bank write bursts
system.mem_ctrls3.perBankRdBursts::3            40684                       # Per bank write bursts
system.mem_ctrls3.perBankRdBursts::4            40435                       # Per bank write bursts
system.mem_ctrls3.perBankRdBursts::5            40940                       # Per bank write bursts
system.mem_ctrls3.perBankRdBursts::6            41623                       # Per bank write bursts
system.mem_ctrls3.perBankRdBursts::7            41375                       # Per bank write bursts
system.mem_ctrls3.perBankRdBursts::8            40700                       # Per bank write bursts
system.mem_ctrls3.perBankRdBursts::9            40602                       # Per bank write bursts
system.mem_ctrls3.perBankRdBursts::10           40596                       # Per bank write bursts
system.mem_ctrls3.perBankRdBursts::11           40786                       # Per bank write bursts
system.mem_ctrls3.perBankRdBursts::12           40359                       # Per bank write bursts
system.mem_ctrls3.perBankRdBursts::13           40673                       # Per bank write bursts
system.mem_ctrls3.perBankRdBursts::14           41156                       # Per bank write bursts
system.mem_ctrls3.perBankRdBursts::15           41330                       # Per bank write bursts
system.mem_ctrls3.perBankWrBursts::0            19044                       # Per bank write bursts
system.mem_ctrls3.perBankWrBursts::1            18878                       # Per bank write bursts
system.mem_ctrls3.perBankWrBursts::2            19000                       # Per bank write bursts
system.mem_ctrls3.perBankWrBursts::3            18927                       # Per bank write bursts
system.mem_ctrls3.perBankWrBursts::4            18972                       # Per bank write bursts
system.mem_ctrls3.perBankWrBursts::5            19094                       # Per bank write bursts
system.mem_ctrls3.perBankWrBursts::6            19132                       # Per bank write bursts
system.mem_ctrls3.perBankWrBursts::7            19277                       # Per bank write bursts
system.mem_ctrls3.perBankWrBursts::8            19031                       # Per bank write bursts
system.mem_ctrls3.perBankWrBursts::9            18955                       # Per bank write bursts
system.mem_ctrls3.perBankWrBursts::10           18883                       # Per bank write bursts
system.mem_ctrls3.perBankWrBursts::11           18886                       # Per bank write bursts
system.mem_ctrls3.perBankWrBursts::12           18921                       # Per bank write bursts
system.mem_ctrls3.perBankWrBursts::13           18997                       # Per bank write bursts
system.mem_ctrls3.perBankWrBursts::14           19053                       # Per bank write bursts
system.mem_ctrls3.perBankWrBursts::15           19032                       # Per bank write bursts
system.mem_ctrls3.numRdRetry                    61764                       # Number of times read queue was full causing retry
system.mem_ctrls3.numWrRetry                    11055                       # Number of times write queue was full causing retry
system.mem_ctrls3.totGap                 119632134500                       # Total gap between requests
system.mem_ctrls3.readPktSize::0                    0                       # Read request sizes (log2)
system.mem_ctrls3.readPktSize::1                    0                       # Read request sizes (log2)
system.mem_ctrls3.readPktSize::2                    0                       # Read request sizes (log2)
system.mem_ctrls3.readPktSize::3                    0                       # Read request sizes (log2)
system.mem_ctrls3.readPktSize::4                    0                       # Read request sizes (log2)
system.mem_ctrls3.readPktSize::5                    0                       # Read request sizes (log2)
system.mem_ctrls3.readPktSize::6               653913                       # Read request sizes (log2)
system.mem_ctrls3.writePktSize::0                   0                       # Write request sizes (log2)
system.mem_ctrls3.writePktSize::1                   0                       # Write request sizes (log2)
system.mem_ctrls3.writePktSize::2                   0                       # Write request sizes (log2)
system.mem_ctrls3.writePktSize::3                   0                       # Write request sizes (log2)
system.mem_ctrls3.writePktSize::4                   0                       # Write request sizes (log2)
system.mem_ctrls3.writePktSize::5                   0                       # Write request sizes (log2)
system.mem_ctrls3.writePktSize::6              304083                       # Write request sizes (log2)
system.mem_ctrls3.rdQLenPdf::0                 170684                       # What read queue length does an incoming req see
system.mem_ctrls3.rdQLenPdf::1                  22142                       # What read queue length does an incoming req see
system.mem_ctrls3.rdQLenPdf::2                  22084                       # What read queue length does an incoming req see
system.mem_ctrls3.rdQLenPdf::3                  22969                       # What read queue length does an incoming req see
system.mem_ctrls3.rdQLenPdf::4                  23406                       # What read queue length does an incoming req see
system.mem_ctrls3.rdQLenPdf::5                  23431                       # What read queue length does an incoming req see
system.mem_ctrls3.rdQLenPdf::6                  23187                       # What read queue length does an incoming req see
system.mem_ctrls3.rdQLenPdf::7                  22394                       # What read queue length does an incoming req see
system.mem_ctrls3.rdQLenPdf::8                  21497                       # What read queue length does an incoming req see
system.mem_ctrls3.rdQLenPdf::9                  20549                       # What read queue length does an incoming req see
system.mem_ctrls3.rdQLenPdf::10                 19202                       # What read queue length does an incoming req see
system.mem_ctrls3.rdQLenPdf::11                 18010                       # What read queue length does an incoming req see
system.mem_ctrls3.rdQLenPdf::12                 16579                       # What read queue length does an incoming req see
system.mem_ctrls3.rdQLenPdf::13                 15270                       # What read queue length does an incoming req see
system.mem_ctrls3.rdQLenPdf::14                 14002                       # What read queue length does an incoming req see
[...]
system.ruby.L2Cache_Controller.MT_MB.L2_Replacement_clean::total            4                      
system.ruby.L2Cache_Controller.MT_MB.Exclusive_Unblock |      218488      5.21%      5.21% |      128235      3.06%      8.27% |      127060      3.03%     11.30% |      129384      3.08%     14.38% |      127605      3.04%     17.42% |      127067      3.03%     20.45% |      127382      3.04%     23.49% |      126944      3.03%     26.51% |      127091      3.03%     29.54% |      127461      3.04%     32.58% |      129377      3.08%     35.67% |      128173      3.06%     38.72% |      126782      3.02%     41.75% |      127187      3.03%     44.78% |      125872      3.00%     47.78% |      125946      3.00%     50.78% |      126827      3.02%     53.80% |      126613      3.02%     56.82% |      126999      3.03%     59.85% |      127084      3.03%     62.88% |      126878      3.02%     65.91% |      141223      3.37%     69.27% |      134939      3.22%     72.49% |      125664      3.00%     75.49% |      126114      3.01%     78.49% |      126489      3.02%     81.51% |      126192      3.01%     84.52% |      126300      3.01%     87.53% |      127654      3.04%     90.57% |      126923      3.03%     93.60% |      130697      3.12%     96.71% |      137918      3.29%    100.00%
system.ruby.L2Cache_Controller.MT_MB.Exclusive_Unblock::total      4194568                      
system.ruby.L2Cache_Controller.MT_IIB.L1_GETS |           3     50.00%     50.00% |           0      0.00%     50.00% |           0      0.00%     50.00% |           0      0.00%     50.00% |           0      0.00%     50.00% |           0      0.00%     50.00% |           0      0.00%     50.00% |           0      0.00%     50.00% |           1     16.67%     66.67% |           0      0.00%     66.67% |           1     16.67%     83.33% |           0      0.00%     83.33% |           1     16.67%    100.00% |           0      0.00%    100.00% |           0      0.00%    100.00% |           0      0.00%    100.00% |           0      0.00%    100.00% |           0      0.00%    100.00% |           0      0.00%    100.00% |           0      0.00%    100.00% |           0      0.00%    100.00% |           0      0.00%    100.00% |           0      0.00%    100.00% |           0      0.00%    100.00% |           0      0.00%    100.00% |           0      0.00%    100.00% |           0      0.00%    100.00% |           0      0.00%    100.00% |           0      0.00%    100.00% |           0      0.00%    100.00% |           0      0.00%    100.00% |           0      0.00%    100.00%
system.ruby.L2Cache_Controller.MT_IIB.L1_GETS::total            6                      
system.ruby.L2Cache_Controller.MT_IIB.L1_PUTX |          16      1.70%      1.70% |          18      1.92%      3.62% |          16      1.70%      5.32% |          20      2.13%      7.45% |          11      1.17%      8.63% |          21      2.24%     10.86% |          19      2.02%     12.89% |          27      2.88%     15.76% |          18      1.92%     17.68% |          20      2.13%     19.81% |          27      2.88%     22.68% |          30      3.19%     25.88% |          26      2.77%     28.65% |          30      3.19%     31.84% |          46      4.90%     36.74% |          34      3.62%     40.36% |          36      3.83%     44.20% |          25      2.66%     46.86% |          34      3.62%     50.48% |          44      4.69%     55.17% |          34      3.62%     58.79% |          30      3.19%     61.98% |          52      5.54%     67.52% |          43      4.58%     72.10% |          50      5.32%     77.42% |          39      4.15%     81.58% |          38      4.05%     85.62% |          42      4.47%     90.10% |          25      2.66%     92.76% |          24      2.56%     95.31% |          21      2.24%     97.55% |          23      2.45%    100.00%
system.ruby.L2Cache_Controller.MT_IIB.L1_PUTX::total          939                      
system.ruby.L2Cache_Controller.MT_IIB.WB_Data |           0      0.00%      0.00% |           0      0.00%      0.00% |           0      0.00%      0.00% |           0      0.00%      0.00% |           0      0.00%      0.00% |           0      0.00%      0.00% |           0      0.00%      0.00% |           0      0.00%      0.00% |           0      0.00%      0.00% |           0      0.00%      0.00% |           0      0.00%      0.00% |           0      0.00%      0.00% |           0      0.00%      0.00% |           0      0.00%      0.00% |           0      0.00%      0.00% |           0      0.00%      0.00% |           0      0.00%      0.00% |           0      0.00%      0.00% |           0      0.00%      0.00% |           0      0.00%      0.00% |           0      0.00%      0.00% |           2     40.00%     40.00% |           0      0.00%     40.00% |           0      0.00%     40.00% |           0      0.00%     40.00% |           0      0.00%     40.00% |           1     20.00%     60.00% |           0      0.00%     60.00% |           0      0.00%     60.00% |           0      0.00%     60.00% |           0      0.00%     60.00% |           2     40.00%    100.00%
system.ruby.L2Cache_Controller.MT_IIB.WB_Data::total            5                      
system.ruby.L2Cache_Controller.MT_IIB.WB_Data_clean |        1370      3.22%      3.22% |        1345      3.16%      6.37% |        1278      3.00%      9.37% |        1265      2.97%     12.34% |        1290      3.03%     15.37% |        1262      2.96%     18.33% |        1256      2.95%     21.28% |        1212      2.84%     24.12% |        1193      2.80%     26.92% |        1219      2.86%     29.79% |        1274      2.99%     32.78% |        1277      3.00%     35.77% |        1325      3.11%     38.88% |        1304      3.06%     41.94% |        1292      3.03%     44.98% |        1293      3.03%     48.01% |        1336      3.14%     51.15% |        1396      3.28%     54.42% |        1415      3.32%     57.75% |        1404      3.30%     61.04% |        1384      3.25%     64.29% |        1324      3.11%     67.40% |        1426      3.35%     70.74% |        1375      3.23%     73.97% |        1385      3.25%     77.22% |        1387      3.26%     80.48% |        1364      3.20%     83.68% |        1410      3.31%     86.99% |        1415      3.32%     90.31% |        1401      3.29%     93.60% |        1424      3.34%     96.94% |        1303      3.06%    100.00%
system.ruby.L2Cache_Controller.MT_IIB.WB_Data_clean::total        42604                      
system.ruby.L2Cache_Controller.MT_IIB.Unblock |          41      1.31%      1.31% |          49      1.57%      2.88% |         125      3.99%      6.87% |          63      2.01%      8.88% |          78      2.49%     11.37% |          77      2.46%     13.83% |          89      2.84%     16.68% |          83      2.65%     19.33% |         183      5.85%     25.18% |         154      4.92%     30.10% |         154      4.92%     35.02% |          73      2.33%     37.35% |          58      1.85%     39.20% |          78      2.49%     41.69% |         123      3.93%     45.62% |          92      2.94%     48.56% |         110      3.51%     52.08% |          98      3.13%     55.21% |          92      2.94%     58.15% |          92      2.94%     61.09% |         148      4.73%     65.81% |         150      4.79%     70.61% |         119      3.80%     74.41% |          92      2.94%     77.35% |          90      2.88%     80.22% |          82      2.62%     82.84% |         106      3.39%     86.23% |          85      2.72%     88.95% |         104      3.32%     92.27% |          85      2.72%     94.98% |          61      1.95%     96.93% |          96      3.07%    100.00%
system.ruby.L2Cache_Controller.MT_IIB.Unblock::total         3130                      
system.ruby.L2Cache_Controller.MT_IB.L1_PUTX |           0      0.00%      0.00% |           0      0.00%      0.00% |           0      0.00%      0.00% |           0      0.00%      0.00% |           0      0.00%      0.00% |           0      0.00%      0.00% |           0      0.00%      0.00% |           0      0.00%      0.00% |           0      0.00%      0.00% |           0      0.00%      0.00% |           0      0.00%      0.00% |           0      0.00%      0.00% |           0      0.00%      0.00% |           1     50.00%     50.00% |           0      0.00%     50.00% |           0      0.00%     50.00% |           0      0.00%     50.00% |           1     50.00%    100.00% |           0      0.00%    100.00% |           0      0.00%    100.00% |           0      0.00%    100.00% |           0      0.00%    100.00% |           0      0.00%    100.00% |           0      0.00%    100.00% |           0      0.00%    100.00% |           0      0.00%    100.00% |           0      0.00%    100.00% |           0      0.00%    100.00% |           0      0.00%    100.00% |           0      0.00%    100.00% |           0      0.00%    100.00% |           0      0.00%    100.00%
system.ruby.L2Cache_Controller.MT_IB.L1_PUTX::total            2                      
system.ruby.L2Cache_Controller.MT_IB.WB_Data_clean |          41      1.31%      1.31% |          49      1.57%      2.88% |         125      3.99%      6.87% |          63      2.01%      8.88% |          78      2.49%     11.37% |          77      2.46%     13.83% |          89      2.84%     16.68% |          83      2.65%     19.33% |         183      5.85%     25.18% |         154      4.92%     30.10% |         154      4.92%     35.02% |          73      2.33%     37.35% |          58      1.85%     39.20% |          78      2.49%     41.69% |         123      3.93%     45.62% |          92      2.94%     48.56% |         110      3.51%     52.08% |          98      3.13%     55.21% |          92      2.94%     58.15% |          92      2.94%     61.09% |         148      4.73%     65.81% |         150      4.79%     70.61% |         119      3.80%     74.41% |          92      2.94%     77.35% |          90      2.88%     80.22% |          82      2.62%     82.84% |         106      3.39%     86.23% |          85      2.72%     88.95% |         104      3.32%     92.27% |          85      2.72%     94.98% |          61      1.95%     96.93% |          96      3.07%    100.00%
system.ruby.L2Cache_Controller.MT_IB.WB_Data_clean::total         3130                      
system.ruby.L2Cache_Controller.MT_SB.L1_GETS |           0      0.00%      0.00% |           0      0.00%      0.00% |           0      0.00%      0.00% |           0      0.00%      0.00% |           0      0.00%      0.00% |           0      0.00%      0.00% |           0      0.00%      0.00% |           0      0.00%      0.00% |           0      0.00%      0.00% |           0      0.00%      0.00% |           1    100.00%    100.00% |           0      0.00%    100.00% |           0      0.00%    100.00% |           0      0.00%    100.00% |           0      0.00%    100.00% |           0      0.00%    100.00% |           0      0.00%    100.00% |           0      0.00%    100.00% |           0      0.00%    100.00% |           0      0.00%    100.00% |           0      0.00%    100.00% |           0      0.00%    100.00% |           0      0.00%    100.00% |           0      0.00%    100.00% |           0      0.00%    100.00% |           0      0.00%    100.00% |           0      0.00%    100.00% |           0      0.00%    100.00% |           0      0.00%    100.00% |           0      0.00%    100.00% |           0      0.00%    100.00% |           0      0.00%    100.00%
system.ruby.L2Cache_Controller.MT_SB.L1_GETS::total            1                      
system.ruby.L2Cache_Controller.MT_SB.L1_PUTX |           0      0.00%      0.00% |           1      1.61%      1.61% |           2      3.23%      4.84% |           3      4.84%      9.68% |           0      0.00%      9.68% |           1      1.61%     11.29% |           2      3.23%     14.52% |           2      3.23%     17.74% |           1      1.61%     19.35% |           2      3.23%     22.58% |           1      1.61%     24.19% |           1      1.61%     25.81% |           3      4.84%     30.65% |           1      1.61%     32.26% |           4      6.45%     38.71% |           1      1.61%     40.32% |           2      3.23%     43.55% |           4      6.45%     50.00% |           2      3.23%     53.23% |           4      6.45%     59.68% |           1      1.61%     61.29% |           1      1.61%     62.90% |           2      3.23%     66.13% |           3      4.84%     70.97% |           0      0.00%     70.97% |           2      3.23%     74.19% |           3      4.84%     79.03% |           2      3.23%     82.26% |           2      3.23%     85.48% |           4      6.45%     91.94% |           2      3.23%     95.16% |           3      4.84%    100.00%
system.ruby.L2Cache_Controller.MT_SB.L1_PUTX::total           62                      
system.ruby.L2Cache_Controller.MT_SB.Unblock |        1370      3.22%      3.22% |        1345      3.16%      6.37% |        1278      3.00%      9.37% |        1265      2.97%     12.34% |        1290      3.03%     15.37% |        1262      2.96%     18.33% |        1256      2.95%     21.28% |        1212      2.84%     24.12% |        1193      2.80%     26.92% |        1219      2.86%     29.78% |        1274      2.99%     32.77% |        1277      3.00%     35.77% |        1325      3.11%     38.88% |        1304      3.06%     41.94% |        1292      3.03%     44.97% |        1293      3.03%     48.01% |        1336      3.14%     51.14% |        1396      3.28%     54.42% |        1415      3.32%     57.74% |        1404      3.30%     61.03% |        1384      3.25%     64.28% |        1326      3.11%     67.39% |        1426      3.35%     70.74% |        1375      3.23%     73.97% |        1385      3.25%     77.22% |        1387      3.26%     80.47% |        1365      3.20%     83.68% |        1410      3.31%     86.99% |        1415      3.32%     90.31% |        1401      3.29%     93.60% |        1424      3.34%     96.94% |        1305      3.06%    100.00%
system.ruby.L2Cache_Controller.MT_SB.Unblock::total        42609                      
system.ruby.SimicsNetworkPortInterface_Controller.MessageSend |      438479     20.70%     20.70% |     1058967     50.00%     70.70% |       76664      3.62%     74.32% |       83915      3.96%     78.29% |       76409      3.61%     81.89% |       80130      3.78%     85.68% |       77261      3.65%     89.32% |       84174      3.97%     93.30% |       71675      3.38%     96.68% |       70260      3.32%    100.00% |           0      0.00%    100.00% |           0      0.00%    100.00% |           0      0.00%    100.00% |           0      0.00%    100.00% |           0      0.00%    100.00% |           0      0.00%    100.00% |           0      0.00%    100.00% |           0      0.00%    100.00% |           0      0.00%    100.00% |           0      0.00%    100.00% |           0      0.00%    100.00% |           0      0.00%    100.00% |           0      0.00%    100.00% |           0      0.00%    100.00% |           0      0.00%    100.00% |           0      0.00%    100.00% |           0      0.00%    100.00% |           0      0.00%    100.00% |           0      0.00%    100.00% |           0      0.00%    100.00% |           0      0.00%    100.00% |           0      0.00%    100.00%
system.ruby.SimicsNetworkPortInterface_Controller.MessageSend::total      2117934                      
system.ruby.SimicsNetworkPortInterface_Controller.MessageRecv |      438479     20.70%     20.70% |     1058967     50.00%     70.70% |       76664      3.62%     74.32% |       83915      3.96%     78.29% |       76409      3.61%     81.89% |       80130      3.78%     85.68% |       77261      3.65%     89.32% |       84174      3.97%     93.30% |       71675      3.38%     96.68% |       70260      3.32%    100.00% |           0      0.00%    100.00% |           0      0.00%    100.00% |           0      0.00%    100.00% |           0      0.00%    100.00% |           0      0.00%    100.00% |           0      0.00%    100.00% |           0      0.00%    100.00% |           0      0.00%    100.00% |           0      0.00%    100.00% |           0      0.00%    100.00% |           0      0.00%    100.00% |           0      0.00%    100.00% |           0      0.00%    100.00% |           0      0.00%    100.00% |           0      0.00%    100.00% |           0      0.00%    100.00% |           0      0.00%    100.00% |           0      0.00%    100.00% |           0      0.00%    100.00% |           0      0.00%    100.00% |           0      0.00%    100.00% |           0      0.00%    100.00%
system.ruby.SimicsNetworkPortInterface_Controller.MessageRecv::total      2117934                      
system.ruby.SimicsNetworkPortInterface_Controller.A.MessageSend |      438479     20.70%     20.70% |     1058967     50.00%     70.70% |       76664      3.62%     74.32% |       83915      3.96%     78.29% |       76409      3.61%     81.89% |       80130      3.78%     85.68% |       77261      3.65%     89.32% |       84174      3.97%     93.30% |       71675      3.38%     96.68% |       70260      3.32%    100.00% |           0      0.00%    100.00% |           0      0.00%    100.00% |           0      0.00%    100.00% |           0      0.00%    100.00% |           0      0.00%    100.00% |           0      0.00%    100.00% |           0      0.00%    100.00% |           0      0.00%    100.00% |           0      0.00%    100.00% |           0      0.00%    100.00% |           0      0.00%    100.00% |           0      0.00%    100.00% |           0      0.00%    100.00% |           0      0.00%    100.00% |           0      0.00%    100.00% |           0      0.00%    100.00% |           0      0.00%    100.00% |           0      0.00%    100.00% |           0      0.00%    100.00% |           0      0.00%    100.00% |           0      0.00%    100.00% |           0      0.00%    100.00%
system.ruby.SimicsNetworkPortInterface_Controller.A.MessageSend::total      2117934                      
system.ruby.SimicsNetworkPortInterface_Controller.A.MessageRecv |      438479     20.70%     20.70% |     1058967     50.00%     70.70% |       76664      3.62%     74.32% |       83915      3.96%     78.29% |       76409      3.61%     81.89% |       80130      3.78%     85.68% |       77261      3.65%     89.32% |       84174      3.97%     93.30% |       71675      3.38%     96.68% |       70260      3.32%    100.00% |           0      0.00%    100.00% |           0      0.00%    100.00% |           0      0.00%    100.00% |           0      0.00%    100.00% |           0      0.00%    100.00% |           0      0.00%    100.00% |           0      0.00%    100.00% |           0      0.00%    100.00% |           0      0.00%    100.00% |           0      0.00%    100.00% |           0      0.00%    100.00% |           0      0.00%    100.00% |           0      0.00%    100.00% |           0      0.00%    100.00% |           0      0.00%    100.00% |           0      0.00%    100.00% |           0      0.00%    100.00% |           0      0.00%    100.00% |           0      0.00%    100.00% |           0      0.00%    100.00% |           0      0.00%    100.00% |           0      0.00%    100.00%
system.ruby.SimicsNetworkPortInterface_Controller.A.MessageRecv::total      2117934                      
system.switch_cpus.kern.inst.arm                    0                       # number of arm instructions executed
system.switch_cpus.kern.inst.quiesce                0                       # number of quiesce instructions executed

---------- End Simulation Statistics   ----------
